version 3
run DynamicExhausedPollingSystem-12-20230420-00:36:16-23468
attr configname DynamicExhausedPollingSystem
attr datetime 20230420-00:36:16
attr datetimef 20230420-003616
attr experiment DynamicExhausedPollingSystem
attr inifile omnetpp.ini
attr iterationvars $0=12
attr iterationvarsd 12
attr iterationvarsf 12-
attr measurement $0=12
attr network DynamicExhausedPollingSystem
attr processid 23468
attr repetition 0
attr replication #0
attr resultdir results
attr runnumber 12
attr seedset 12
config cmdenv-redirect-output true
config description "Dynamic Adaptive Exhaused Polling System"
config network DynamicExhausedPollingSystem
config *.numQueues 3
config *.generator[0].interArrivalTime exponential(1/30)
config *.generator[1].interArrivalTime exponential(1/20)
config *.generator[2].interArrivalTime exponential(1/14)
config *.dynamicExhausedQueue[*].serviceTime exponential(0.01)
config *.dynamicServer.switchingTime "\"0.001 0.001 0.001 0.0006 0.000667 0.000667 0.000667 0.000667 0.000667 0.000667\""
config *.dynamicServer.restTime 0
config rng-class cMersenneTwister
config seed-set 12
config output-scalar-file results/20230420-003616-12-#12.sca

par DynamicExhausedPollingSystem.generator[0] typename "\"Generator\""
par DynamicExhausedPollingSystem.generator[0] interArrivalTime exponential(0.0333333)
par DynamicExhausedPollingSystem.generator[1] typename "\"Generator\""
par DynamicExhausedPollingSystem.generator[1] interArrivalTime exponential(0.05)
par DynamicExhausedPollingSystem.generator[2] typename "\"Generator\""
par DynamicExhausedPollingSystem.generator[2] interArrivalTime exponential(0.0714286)
par DynamicExhausedPollingSystem.dynamicExhausedQueue[0] typename "\"DynamicExhausedQueue\""
par DynamicExhausedPollingSystem.dynamicExhausedQueue[0] serviceTime exponential(0.01)
par DynamicExhausedPollingSystem.dynamicExhausedQueue[0] ownIndex 0
scalar DynamicExhausedPollingSystem.dynamicExhausedQueue[0] "Mean waiting time in DynamicExhausedQueue" 0.019664312709523
scalar DynamicExhausedPollingSystem.dynamicExhausedQueue[0] "Mean sojourn time in DynamicExhausedQueue" 0.029661946242585
scalar DynamicExhausedPollingSystem.dynamicExhausedQueue[0] "Mean cycle time in DynamicExhausedQueue" 0.0082169475962016
scalar DynamicExhausedPollingSystem.dynamicExhausedQueue[0] "Mean intervisit time in DynamicExhausedQueue" 0.0057529664740694
scalar DynamicExhausedPollingSystem.dynamicExhausedQueue[0] "Number of cycle in DynamicExhausedQueue" 8308120
par DynamicExhausedPollingSystem.dynamicExhausedQueue[1] typename "\"DynamicExhausedQueue\""
par DynamicExhausedPollingSystem.dynamicExhausedQueue[1] serviceTime exponential(0.01)
par DynamicExhausedPollingSystem.dynamicExhausedQueue[1] ownIndex 1
scalar DynamicExhausedPollingSystem.dynamicExhausedQueue[1] "Mean waiting time in DynamicExhausedQueue" 0.023000740207106
scalar DynamicExhausedPollingSystem.dynamicExhausedQueue[1] "Mean sojourn time in DynamicExhausedQueue" 0.032984881001769
scalar DynamicExhausedPollingSystem.dynamicExhausedQueue[1] "Mean cycle time in DynamicExhausedQueue" 0.0083347449240294
scalar DynamicExhausedPollingSystem.dynamicExhausedQueue[1] "Mean intervisit time in DynamicExhausedQueue" 0.0066704053430159
scalar DynamicExhausedPollingSystem.dynamicExhausedQueue[1] "Number of cycle in DynamicExhausedQueue" 8190697
par DynamicExhausedPollingSystem.dynamicExhausedQueue[2] typename "\"DynamicExhausedQueue\""
par DynamicExhausedPollingSystem.dynamicExhausedQueue[2] serviceTime exponential(0.01)
par DynamicExhausedPollingSystem.dynamicExhausedQueue[2] ownIndex 2
scalar DynamicExhausedPollingSystem.dynamicExhausedQueue[2] "Mean waiting time in DynamicExhausedQueue" 0.025648365095591
scalar DynamicExhausedPollingSystem.dynamicExhausedQueue[2] "Mean sojourn time in DynamicExhausedQueue" 0.035640989446719
scalar DynamicExhausedPollingSystem.dynamicExhausedQueue[2] "Mean cycle time in DynamicExhausedQueue" 0.008427550930557
scalar DynamicExhausedPollingSystem.dynamicExhausedQueue[2] "Mean intervisit time in DynamicExhausedQueue" 0.0072467767476451
scalar DynamicExhausedPollingSystem.dynamicExhausedQueue[2] "Number of cycle in DynamicExhausedQueue" 8100499
par DynamicExhausedPollingSystem.dynamicServer typename "\"DynamicServer\""
par DynamicExhausedPollingSystem.dynamicServer switchingTime "\"0.001 0.001 0.001 0.0006 0.000667 0.000667 0.000667 0.000667 0.000667 0.000667\""
par DynamicExhausedPollingSystem.dynamicServer restTime 0
par DynamicExhausedPollingSystem.dynamicServer numQueues 3
scalar DynamicExhausedPollingSystem.dynamicServer "Mean cycle time in the server" 0.0043891904388648
scalar DynamicExhausedPollingSystem.dynamicServer "Number of cycle" 15553526
par DynamicExhausedPollingSystem.sink typename "\"Sink\""
scalar DynamicExhausedPollingSystem.sink "Mean sojourn time" 0.032009719852658
scalar DynamicExhausedPollingSystem.sink "Number of packets" 4370162
scalar DynamicExhausedPollingSystem.sink "Working time" 28.165
par DynamicExhausedPollingSystem typename "\"DynamicExhausedPollingSystem\""
par DynamicExhausedPollingSystem numQueues 3

