version 3
run DynamicExhausedPollingSystem-5-20230420-00:36:42-9692
attr configname DynamicExhausedPollingSystem
attr datetime 20230420-00:36:42
attr datetimef 20230420-003642
attr experiment DynamicExhausedPollingSystem
attr inifile omnetpp.ini
attr iterationvars $0=5
attr iterationvarsd 5
attr iterationvarsf 5-
attr measurement $0=5
attr network DynamicExhausedPollingSystem
attr processid 9692
attr repetition 0
attr replication #0
attr resultdir results
attr runnumber 5
attr seedset 5
config cmdenv-redirect-output true
config description "Dynamic Adaptive Exhaused Polling System"
config network DynamicExhausedPollingSystem
config *.numQueues 3
config *.generator[0].interArrivalTime exponential(1/30)
config *.generator[1].interArrivalTime exponential(1/20)
config *.generator[2].interArrivalTime exponential(1/14)
config *.dynamicExhausedQueue[*].serviceTime exponential(0.01)
config *.dynamicServer.switchingTime "\"0.001 0.001 0.001 0.0006 0.000667 0.000667 0.000667 0.000667 0.000667 0.000667\""
config *.dynamicServer.restTime 0
config rng-class cMersenneTwister
config seed-set 5
config output-scalar-file results/20230420-003642-5-#5.sca

par DynamicExhausedPollingSystem.generator[0] typename "\"Generator\""
par DynamicExhausedPollingSystem.generator[0] interArrivalTime exponential(0.0333333)
par DynamicExhausedPollingSystem.generator[1] typename "\"Generator\""
par DynamicExhausedPollingSystem.generator[1] interArrivalTime exponential(0.05)
par DynamicExhausedPollingSystem.generator[2] typename "\"Generator\""
par DynamicExhausedPollingSystem.generator[2] interArrivalTime exponential(0.0714286)
par DynamicExhausedPollingSystem.dynamicExhausedQueue[0] typename "\"DynamicExhausedQueue\""
par DynamicExhausedPollingSystem.dynamicExhausedQueue[0] serviceTime exponential(0.01)
par DynamicExhausedPollingSystem.dynamicExhausedQueue[0] ownIndex 0
scalar DynamicExhausedPollingSystem.dynamicExhausedQueue[0] "Mean waiting time in DynamicExhausedQueue" 0.019732969605228
scalar DynamicExhausedPollingSystem.dynamicExhausedQueue[0] "Mean sojourn time in DynamicExhausedQueue" 0.029737485825972
scalar DynamicExhausedPollingSystem.dynamicExhausedQueue[0] "Mean cycle time in DynamicExhausedQueue" 0.0082220205026591
scalar DynamicExhausedPollingSystem.dynamicExhausedQueue[0] "Mean intervisit time in DynamicExhausedQueue" 0.0057550514393176
scalar DynamicExhausedPollingSystem.dynamicExhausedQueue[0] "Number of cycle in DynamicExhausedQueue" 6506598
par DynamicExhausedPollingSystem.dynamicExhausedQueue[1] typename "\"DynamicExhausedQueue\""
par DynamicExhausedPollingSystem.dynamicExhausedQueue[1] serviceTime exponential(0.01)
par DynamicExhausedPollingSystem.dynamicExhausedQueue[1] ownIndex 1
scalar DynamicExhausedPollingSystem.dynamicExhausedQueue[1] "Mean waiting time in DynamicExhausedQueue" 0.023045617279089
scalar DynamicExhausedPollingSystem.dynamicExhausedQueue[1] "Mean sojourn time in DynamicExhausedQueue" 0.033038832527999
scalar DynamicExhausedPollingSystem.dynamicExhausedQueue[1] "Mean cycle time in DynamicExhausedQueue" 0.00834053464895
scalar DynamicExhausedPollingSystem.dynamicExhausedQueue[1] "Mean intervisit time in DynamicExhausedQueue" 0.0066747257671715
scalar DynamicExhausedPollingSystem.dynamicExhausedQueue[1] "Number of cycle in DynamicExhausedQueue" 6414143
par DynamicExhausedPollingSystem.dynamicExhausedQueue[2] typename "\"DynamicExhausedQueue\""
par DynamicExhausedPollingSystem.dynamicExhausedQueue[2] serviceTime exponential(0.01)
par DynamicExhausedPollingSystem.dynamicExhausedQueue[2] ownIndex 2
scalar DynamicExhausedPollingSystem.dynamicExhausedQueue[2] "Mean waiting time in DynamicExhausedQueue" 0.02574249985485
scalar DynamicExhausedPollingSystem.dynamicExhausedQueue[2] "Mean sojourn time in DynamicExhausedQueue" 0.035744664895329
scalar DynamicExhausedPollingSystem.dynamicExhausedQueue[2] "Mean cycle time in DynamicExhausedQueue" 0.0084338983181703
scalar DynamicExhausedPollingSystem.dynamicExhausedQueue[2] "Mean intervisit time in DynamicExhausedQueue" 0.0072525363438598
scalar DynamicExhausedPollingSystem.dynamicExhausedQueue[2] "Number of cycle in DynamicExhausedQueue" 6343138
par DynamicExhausedPollingSystem.dynamicServer typename "\"DynamicServer\""
par DynamicExhausedPollingSystem.dynamicServer switchingTime "\"0.001 0.001 0.001 0.0006 0.000667 0.000667 0.000667 0.000667 0.000667 0.000667\""
par DynamicExhausedPollingSystem.dynamicServer restTime 0
par DynamicExhausedPollingSystem.dynamicServer numQueues 3
scalar DynamicExhausedPollingSystem.dynamicServer "Mean cycle time in the server" 0.0043921142483094
scalar DynamicExhausedPollingSystem.dynamicServer "Number of cycle" 12180326
par DynamicExhausedPollingSystem.sink typename "\"Sink\""
scalar DynamicExhausedPollingSystem.sink "Mean sojourn time" 0.032083598263975
scalar DynamicExhausedPollingSystem.sink "Number of packets" 3422827
scalar DynamicExhausedPollingSystem.sink "Working time" 22.173
par DynamicExhausedPollingSystem typename "\"DynamicExhausedPollingSystem\""
par DynamicExhausedPollingSystem numQueues 3

