version 3
run DynamicExhausedPollingSystem-14-20230420-00:36:16-16516
attr configname DynamicExhausedPollingSystem
attr datetime 20230420-00:36:16
attr datetimef 20230420-003616
attr experiment DynamicExhausedPollingSystem
attr inifile omnetpp.ini
attr iterationvars $0=14
attr iterationvarsd 14
attr iterationvarsf 14-
attr measurement $0=14
attr network DynamicExhausedPollingSystem
attr processid 16516
attr repetition 0
attr replication #0
attr resultdir results
attr runnumber 14
attr seedset 14
config cmdenv-redirect-output true
config description "Dynamic Adaptive Exhaused Polling System"
config network DynamicExhausedPollingSystem
config *.numQueues 3
config *.generator[0].interArrivalTime exponential(1/30)
config *.generator[1].interArrivalTime exponential(1/20)
config *.generator[2].interArrivalTime exponential(1/14)
config *.dynamicExhausedQueue[*].serviceTime exponential(0.01)
config *.dynamicServer.switchingTime "\"0.001 0.001 0.001 0.0006 0.000667 0.000667 0.000667 0.000667 0.000667 0.000667\""
config *.dynamicServer.restTime 0
config rng-class cMersenneTwister
config seed-set 14
config output-scalar-file results/20230420-003616-14-#14.sca

par DynamicExhausedPollingSystem.generator[0] typename "\"Generator\""
par DynamicExhausedPollingSystem.generator[0] interArrivalTime exponential(0.0333333)
par DynamicExhausedPollingSystem.generator[1] typename "\"Generator\""
par DynamicExhausedPollingSystem.generator[1] interArrivalTime exponential(0.05)
par DynamicExhausedPollingSystem.generator[2] typename "\"Generator\""
par DynamicExhausedPollingSystem.generator[2] interArrivalTime exponential(0.0714286)
par DynamicExhausedPollingSystem.dynamicExhausedQueue[0] typename "\"DynamicExhausedQueue\""
par DynamicExhausedPollingSystem.dynamicExhausedQueue[0] serviceTime exponential(0.01)
par DynamicExhausedPollingSystem.dynamicExhausedQueue[0] ownIndex 0
scalar DynamicExhausedPollingSystem.dynamicExhausedQueue[0] "Mean waiting time in DynamicExhausedQueue" 0.019649874939796
scalar DynamicExhausedPollingSystem.dynamicExhausedQueue[0] "Mean sojourn time in DynamicExhausedQueue" 0.029639668875704
scalar DynamicExhausedPollingSystem.dynamicExhausedQueue[0] "Mean cycle time in DynamicExhausedQueue" 0.0082214365467228
scalar DynamicExhausedPollingSystem.dynamicExhausedQueue[0] "Mean intervisit time in DynamicExhausedQueue" 0.0057571577207859
scalar DynamicExhausedPollingSystem.dynamicExhausedQueue[0] "Number of cycle in DynamicExhausedQueue" 8461521
par DynamicExhausedPollingSystem.dynamicExhausedQueue[1] typename "\"DynamicExhausedQueue\""
par DynamicExhausedPollingSystem.dynamicExhausedQueue[1] serviceTime exponential(0.01)
par DynamicExhausedPollingSystem.dynamicExhausedQueue[1] ownIndex 1
scalar DynamicExhausedPollingSystem.dynamicExhausedQueue[1] "Mean waiting time in DynamicExhausedQueue" 0.022965344414025
scalar DynamicExhausedPollingSystem.dynamicExhausedQueue[1] "Mean sojourn time in DynamicExhausedQueue" 0.032949791023053
scalar DynamicExhausedPollingSystem.dynamicExhausedQueue[1] "Mean cycle time in DynamicExhausedQueue" 0.0083391612637685
scalar DynamicExhausedPollingSystem.dynamicExhausedQueue[1] "Mean intervisit time in DynamicExhausedQueue" 0.0066733591500433
scalar DynamicExhausedPollingSystem.dynamicExhausedQueue[1] "Number of cycle in DynamicExhausedQueue" 8342074
par DynamicExhausedPollingSystem.dynamicExhausedQueue[2] typename "\"DynamicExhausedQueue\""
par DynamicExhausedPollingSystem.dynamicExhausedQueue[2] serviceTime exponential(0.01)
par DynamicExhausedPollingSystem.dynamicExhausedQueue[2] ownIndex 2
scalar DynamicExhausedPollingSystem.dynamicExhausedQueue[2] "Mean waiting time in DynamicExhausedQueue" 0.025503548456213
scalar DynamicExhausedPollingSystem.dynamicExhausedQueue[2] "Mean sojourn time in DynamicExhausedQueue" 0.035518669474445
scalar DynamicExhausedPollingSystem.dynamicExhausedQueue[2] "Mean cycle time in DynamicExhausedQueue" 0.008432389500245
scalar DynamicExhausedPollingSystem.dynamicExhausedQueue[2] "Mean intervisit time in DynamicExhausedQueue" 0.0072482395158053
scalar DynamicExhausedPollingSystem.dynamicExhausedQueue[2] "Number of cycle in DynamicExhausedQueue" 8249839
par DynamicExhausedPollingSystem.dynamicServer typename "\"DynamicServer\""
par DynamicExhausedPollingSystem.dynamicServer switchingTime "\"0.001 0.001 0.001 0.0006 0.000667 0.000667 0.000667 0.000667 0.000667 0.000667\""
par DynamicExhausedPollingSystem.dynamicServer restTime 0
par DynamicExhausedPollingSystem.dynamicServer numQueues 3
scalar DynamicExhausedPollingSystem.dynamicServer "Mean cycle time in the server" 0.0043918990460252
scalar DynamicExhausedPollingSystem.dynamicServer "Number of cycle" 15839595
par DynamicExhausedPollingSystem.sink typename "\"Sink\""
scalar DynamicExhausedPollingSystem.sink "Mean sojourn time" 0.031961265256693
scalar DynamicExhausedPollingSystem.sink "Number of packets" 4454509
scalar DynamicExhausedPollingSystem.sink "Working time" 28.776
par DynamicExhausedPollingSystem typename "\"DynamicExhausedPollingSystem\""
par DynamicExhausedPollingSystem numQueues 3

