version 3
run DynamicExhausedPollingSystem-9-20230420-00:36:41-784
attr configname DynamicExhausedPollingSystem
attr datetime 20230420-00:36:41
attr datetimef 20230420-003641
attr experiment DynamicExhausedPollingSystem
attr inifile omnetpp.ini
attr iterationvars $0=9
attr iterationvarsd 9
attr iterationvarsf 9-
attr measurement $0=9
attr network DynamicExhausedPollingSystem
attr processid 784
attr repetition 0
attr replication #0
attr resultdir results
attr runnumber 9
attr seedset 9
config cmdenv-redirect-output true
config description "Dynamic Adaptive Exhaused Polling System"
config network DynamicExhausedPollingSystem
config *.numQueues 3
config *.generator[0].interArrivalTime exponential(1/30)
config *.generator[1].interArrivalTime exponential(1/20)
config *.generator[2].interArrivalTime exponential(1/14)
config *.dynamicExhausedQueue[*].serviceTime exponential(0.01)
config *.dynamicServer.switchingTime "\"0.001 0.001 0.001 0.0006 0.000667 0.000667 0.000667 0.000667 0.000667 0.000667\""
config *.dynamicServer.restTime 0
config rng-class cMersenneTwister
config seed-set 9
config output-scalar-file results/20230420-003641-9-#9.sca

par DynamicExhausedPollingSystem.generator[0] typename "\"Generator\""
par DynamicExhausedPollingSystem.generator[0] interArrivalTime exponential(0.0333333)
par DynamicExhausedPollingSystem.generator[1] typename "\"Generator\""
par DynamicExhausedPollingSystem.generator[1] interArrivalTime exponential(0.05)
par DynamicExhausedPollingSystem.generator[2] typename "\"Generator\""
par DynamicExhausedPollingSystem.generator[2] interArrivalTime exponential(0.0714286)
par DynamicExhausedPollingSystem.dynamicExhausedQueue[0] typename "\"DynamicExhausedQueue\""
par DynamicExhausedPollingSystem.dynamicExhausedQueue[0] serviceTime exponential(0.01)
par DynamicExhausedPollingSystem.dynamicExhausedQueue[0] ownIndex 0
scalar DynamicExhausedPollingSystem.dynamicExhausedQueue[0] "Mean waiting time in DynamicExhausedQueue" 0.019696777272348
scalar DynamicExhausedPollingSystem.dynamicExhausedQueue[0] "Mean sojourn time in DynamicExhausedQueue" 0.029698700040536
scalar DynamicExhausedPollingSystem.dynamicExhausedQueue[0] "Mean cycle time in DynamicExhausedQueue" 0.0082270004247254
scalar DynamicExhausedPollingSystem.dynamicExhausedQueue[0] "Mean intervisit time in DynamicExhausedQueue" 0.0057579176909411
scalar DynamicExhausedPollingSystem.dynamicExhausedQueue[0] "Number of cycle in DynamicExhausedQueue" 17806253
par DynamicExhausedPollingSystem.dynamicExhausedQueue[1] typename "\"DynamicExhausedQueue\""
par DynamicExhausedPollingSystem.dynamicExhausedQueue[1] serviceTime exponential(0.01)
par DynamicExhausedPollingSystem.dynamicExhausedQueue[1] ownIndex 1
scalar DynamicExhausedPollingSystem.dynamicExhausedQueue[1] "Mean waiting time in DynamicExhausedQueue" 0.023065941815385
scalar DynamicExhausedPollingSystem.dynamicExhausedQueue[1] "Mean sojourn time in DynamicExhausedQueue" 0.03306485254783
scalar DynamicExhausedPollingSystem.dynamicExhausedQueue[1] "Mean cycle time in DynamicExhausedQueue" 0.0083458464918368
scalar DynamicExhausedPollingSystem.dynamicExhausedQueue[1] "Mean intervisit time in DynamicExhausedQueue" 0.0066776399787128
scalar DynamicExhausedPollingSystem.dynamicExhausedQueue[1] "Number of cycle in DynamicExhausedQueue" 17552689
par DynamicExhausedPollingSystem.dynamicExhausedQueue[2] typename "\"DynamicExhausedQueue\""
par DynamicExhausedPollingSystem.dynamicExhausedQueue[2] serviceTime exponential(0.01)
par DynamicExhausedPollingSystem.dynamicExhausedQueue[2] ownIndex 2
scalar DynamicExhausedPollingSystem.dynamicExhausedQueue[2] "Mean waiting time in DynamicExhausedQueue" 0.025799881491799
scalar DynamicExhausedPollingSystem.dynamicExhausedQueue[2] "Mean sojourn time in DynamicExhausedQueue" 0.035802477749018
scalar DynamicExhausedPollingSystem.dynamicExhausedQueue[2] "Mean cycle time in DynamicExhausedQueue" 0.0084391441022546
scalar DynamicExhausedPollingSystem.dynamicExhausedQueue[2] "Mean intervisit time in DynamicExhausedQueue" 0.0072571789366922
scalar DynamicExhausedPollingSystem.dynamicExhausedQueue[2] "Number of cycle in DynamicExhausedQueue" 17358638
par DynamicExhausedPollingSystem.dynamicServer typename "\"DynamicServer\""
par DynamicExhausedPollingSystem.dynamicServer switchingTime "\"0.001 0.001 0.001 0.0006 0.000667 0.000667 0.000667 0.000667 0.000667 0.000667\""
par DynamicExhausedPollingSystem.dynamicServer restTime 0
par DynamicExhausedPollingSystem.dynamicServer numQueues 3
scalar DynamicExhausedPollingSystem.dynamicServer "Mean cycle time in the server" 0.0043950084641889
scalar DynamicExhausedPollingSystem.dynamicServer "Number of cycle" 33331460
par DynamicExhausedPollingSystem.sink typename "\"Sink\""
scalar DynamicExhausedPollingSystem.sink "Mean sojourn time" 0.032085572454945
scalar DynamicExhausedPollingSystem.sink "Number of packets" 9375337
scalar DynamicExhausedPollingSystem.sink "Working time" 58.462
par DynamicExhausedPollingSystem typename "\"DynamicExhausedPollingSystem\""
par DynamicExhausedPollingSystem numQueues 3

