version 3
run DynamicExhaustivePollingSystemWithTwoQueues-0-20230509-00:11:56-6868
attr configname DynamicExhaustivePollingSystemWithTwoQueues
attr datetime 20230509-00:11:56
attr datetimef 20230509-001156
attr experiment DynamicExhaustivePollingSystemWithTwoQueues
attr inifile omnetpp.ini
attr iterationvars ""
attr iterationvarsd ""
attr iterationvarsf ""
attr measurement ""
attr network DynamicExhaustivePollingSystem
attr processid 6868
attr repetition 0
attr replication #0
attr resultdir results
attr runnumber 0
attr seedset 0
config description "Dynamic Adaptive Exhaustive Polling System With 2 Queues"
config network DynamicExhaustivePollingSystem
config *.numQueues 2
config *.generator[0].interArrivalTime exponential(1/30)
config *.generator[1].interArrivalTime exponential(1/20)
config *.dynamicExhaustiveQueue[*].serviceTime exponential(0.01)
config *.dynamicServer.switchingTime "\"0.001 0.001\""
config *.dynamicServer.restTime 0
config rng-class cMersenneTwister
config output-scalar-file results/20230509-001156-0-#0.sca
config cmdenv-output-file results/20230509-001156-0-#0.out

par DynamicExhaustivePollingSystem.generator[0] typename "\"Generator\""
par DynamicExhaustivePollingSystem.generator[0] interArrivalTime exponential(0.0333333)
par DynamicExhaustivePollingSystem.generator[1] typename "\"Generator\""
par DynamicExhaustivePollingSystem.generator[1] interArrivalTime exponential(0.05)
par DynamicExhaustivePollingSystem.dynamicExhaustiveQueue[0] typename "\"DynamicExhaustiveQueue\""
par DynamicExhaustivePollingSystem.dynamicExhaustiveQueue[0] serviceTime exponential(0.01)
par DynamicExhaustivePollingSystem.dynamicExhaustiveQueue[0] ownIndex 0
scalar DynamicExhaustivePollingSystem.dynamicExhaustiveQueue[0] "Mean waiting time in DynamicExhaustiveQueue[0]" 0.011497049147036
scalar DynamicExhaustivePollingSystem.dynamicExhaustiveQueue[0] "Mean sojourn time in DynamicExhaustiveQueue[0]" 0.021514198542314
scalar DynamicExhaustivePollingSystem.dynamicExhaustiveQueue[0] "Mean cycle time in DynamicExhaustiveQueue[0]" 0.0039873421209291
scalar DynamicExhaustivePollingSystem.dynamicExhaustiveQueue[0] "Mean intervisit time in DynamicExhaustiveQueue[0]" 0.0027882036524492
scalar DynamicExhaustivePollingSystem.dynamicExhaustiveQueue[0] "Number of cycle in DynamicExhaustiveQueue[0]" 15188837
par DynamicExhaustivePollingSystem.dynamicExhaustiveQueue[1] typename "\"DynamicExhaustiveQueue\""
par DynamicExhaustivePollingSystem.dynamicExhaustiveQueue[1] serviceTime exponential(0.01)
par DynamicExhaustivePollingSystem.dynamicExhaustiveQueue[1] ownIndex 1
scalar DynamicExhaustivePollingSystem.dynamicExhaustiveQueue[1] "Mean waiting time in DynamicExhaustiveQueue[1]" 0.013430902276572
scalar DynamicExhaustivePollingSystem.dynamicExhaustiveQueue[1] "Mean sojourn time in DynamicExhaustiveQueue[1]" 0.023425365344251
scalar DynamicExhaustivePollingSystem.dynamicExhaustiveQueue[1] "Mean cycle time in DynamicExhaustiveQueue[1]" 0.0040220308539127
scalar DynamicExhaustivePollingSystem.dynamicExhaustiveQueue[1] "Mean intervisit time in DynamicExhaustiveQueue[1]" 0.0032178882752386
scalar DynamicExhaustivePollingSystem.dynamicExhaustiveQueue[1] "Number of cycle in DynamicExhaustiveQueue[1]" 15057841
par DynamicExhaustivePollingSystem.dynamicServer typename "\"DynamicServer\""
par DynamicExhaustivePollingSystem.dynamicServer switchingTime "\"0.001 0.001\""
par DynamicExhaustivePollingSystem.dynamicServer restTime 0
par DynamicExhaustivePollingSystem.dynamicServer numQueues 2
scalar DynamicExhaustivePollingSystem.dynamicServer "Mean cycle time in the server" 0.0020677815935071
scalar DynamicExhaustivePollingSystem.dynamicServer "Number of cycle" 29288920
par DynamicExhaustivePollingSystem.sink typename "\"Sink\""
scalar DynamicExhaustivePollingSystem.sink "Mean sojourn time" 0.022278430733293
scalar DynamicExhaustivePollingSystem.sink "Number of packets" 3029772
scalar DynamicExhaustivePollingSystem.sink "Working time" 258.963
par DynamicExhaustivePollingSystem.monitor typename "\"Monitor\""
par DynamicExhaustivePollingSystem.monitor numQueues 2
scalar DynamicExhaustivePollingSystem.monitor "Probability C1" 25.073737056935
scalar DynamicExhaustivePollingSystem.monitor "Probability C2" 24.859165173596
scalar DynamicExhaustivePollingSystem.monitor "Probability S1" 30.073636959671
scalar DynamicExhaustivePollingSystem.monitor "Probability S2" 19.993441380035
scalar DynamicExhaustivePollingSystem.monitor "Probability I" 0
scalar DynamicExhaustivePollingSystem.monitor "Probability C1_1_1" 12.933056025243
scalar DynamicExhaustivePollingSystem.monitor "Probability C1_1_0" 12.14068103169
scalar DynamicExhaustivePollingSystem.monitor "Probability C2_1_1" 12.843586183281
scalar DynamicExhaustivePollingSystem.monitor "Probability C2_0_1" 12.015578990322
scalar DynamicExhaustivePollingSystem.monitor "Probability S1_1_1" 15.233397248798
scalar DynamicExhaustivePollingSystem.monitor "Probability S1_1_0" 14.840239710874
scalar DynamicExhaustivePollingSystem.monitor "Probability S2_1_1" 10.16359862889
scalar DynamicExhaustivePollingSystem.monitor "Probability S2_0_1" 9.8298427511457
scalar DynamicExhaustivePollingSystem.monitor "Probability C1_1_1_n1_n2[0][0]" 11.578891760457
scalar DynamicExhaustivePollingSystem.monitor "Probability C1_1_1_n1_n2[0][1]" 0.37409834271508
scalar DynamicExhaustivePollingSystem.monitor "Probability C1_1_1_n1_n2[0][2]" 0.047299281853041
scalar DynamicExhaustivePollingSystem.monitor "Probability C1_1_1_n1_n2[0][3]" 0.013541173466762
scalar DynamicExhaustivePollingSystem.monitor "Probability C1_1_1_n1_n2[0][4]" 0.0044377667884479
scalar DynamicExhaustivePollingSystem.monitor "Probability C1_1_1_n1_n2[0][5]" 0.0016493584733552
scalar DynamicExhaustivePollingSystem.monitor "Probability C1_1_1_n1_n2[0][6]" 0.00070178732215096
scalar DynamicExhaustivePollingSystem.monitor "Probability C1_1_1_n1_n2[0][7]" 0.00029023352627285
scalar DynamicExhaustivePollingSystem.monitor "Probability C1_1_1_n1_n2[0][8]" 0.00014433091410387
scalar DynamicExhaustivePollingSystem.monitor "Probability C1_1_1_n1_n2[0][9]" 5.6507654621612e-05
scalar DynamicExhaustivePollingSystem.monitor "Probability C1_1_1_n1_n2[0][10]" 3.103459879738e-05
scalar DynamicExhaustivePollingSystem.monitor "Probability C1_1_1_n1_n2[0][11]" 6.2044223457026e-06
scalar DynamicExhaustivePollingSystem.monitor "Probability C1_1_1_n1_n2[0][12]" 0
scalar DynamicExhaustivePollingSystem.monitor "Probability C1_1_1_n1_n2[0][13]" 0
scalar DynamicExhaustivePollingSystem.monitor "Probability C1_1_1_n1_n2[0][14]" 0
scalar DynamicExhaustivePollingSystem.monitor "Probability C1_1_1_n1_n2[0][15]" 0
scalar DynamicExhaustivePollingSystem.monitor "Probability C1_1_1_n1_n2[0][16]" 0
scalar DynamicExhaustivePollingSystem.monitor "Probability C1_1_1_n1_n2[0][17]" 0
scalar DynamicExhaustivePollingSystem.monitor "Probability C1_1_1_n1_n2[0][18]" 0
scalar DynamicExhaustivePollingSystem.monitor "Probability C1_1_1_n1_n2[0][19]" 0
scalar DynamicExhaustivePollingSystem.monitor "Probability C1_1_1_n1_n2[1][0]" 0.77644571653464
scalar DynamicExhaustivePollingSystem.monitor "Probability C1_1_1_n1_n2[1][1]" 0.025493190476139
scalar DynamicExhaustivePollingSystem.monitor "Probability C1_1_1_n1_n2[1][2]" 0.0018516815803982
scalar DynamicExhaustivePollingSystem.monitor "Probability C1_1_1_n1_n2[1][3]" 0.00040303936458983
scalar DynamicExhaustivePollingSystem.monitor "Probability C1_1_1_n1_n2[1][4]" 0.00014060929075837
scalar DynamicExhaustivePollingSystem.monitor "Probability C1_1_1_n1_n2[1][5]" 7.8403061487388e-05
scalar DynamicExhaustivePollingSystem.monitor "Probability C1_1_1_n1_n2[1][6]" 1.7954320225084e-05
scalar DynamicExhaustivePollingSystem.monitor "Probability C1_1_1_n1_n2[1][7]" 1.4955793302103e-05
scalar DynamicExhaustivePollingSystem.monitor "Probability C1_1_1_n1_n2[1][8]" 3.3753827011455e-06
scalar DynamicExhaustivePollingSystem.monitor "Probability C1_1_1_n1_n2[1][9]" 1.0862119779929e-07
scalar DynamicExhaustivePollingSystem.monitor "Probability C1_1_1_n1_n2[1][10]" 0
scalar DynamicExhaustivePollingSystem.monitor "Probability C1_1_1_n1_n2[1][11]" 1.731529137931e-09
scalar DynamicExhaustivePollingSystem.monitor "Probability C1_1_1_n1_n2[1][12]" 0
scalar DynamicExhaustivePollingSystem.monitor "Probability C1_1_1_n1_n2[1][13]" 0
scalar DynamicExhaustivePollingSystem.monitor "Probability C1_1_1_n1_n2[1][14]" 0
scalar DynamicExhaustivePollingSystem.monitor "Probability C1_1_1_n1_n2[1][15]" 0
scalar DynamicExhaustivePollingSystem.monitor "Probability C1_1_1_n1_n2[1][16]" 0
scalar DynamicExhaustivePollingSystem.monitor "Probability C1_1_1_n1_n2[1][17]" 0
scalar DynamicExhaustivePollingSystem.monitor "Probability C1_1_1_n1_n2[1][18]" 0
scalar DynamicExhaustivePollingSystem.monitor "Probability C1_1_1_n1_n2[1][19]" 0
scalar DynamicExhaustivePollingSystem.monitor "Probability C1_1_1_n1_n2[2][0]" 0.075623501624716
scalar DynamicExhaustivePollingSystem.monitor "Probability C1_1_1_n1_n2[2][1]" 0.0021602654859812
scalar DynamicExhaustivePollingSystem.monitor "Probability C1_1_1_n1_n2[2][2]" 6.4848307531256e-05
scalar DynamicExhaustivePollingSystem.monitor "Probability C1_1_1_n1_n2[2][3]" 1.421722261799e-05
scalar DynamicExhaustivePollingSystem.monitor "Probability C1_1_1_n1_n2[2][4]" 4.5001498502567e-06
scalar DynamicExhaustivePollingSystem.monitor "Probability C1_1_1_n1_n2[2][5]" 3.8743116616521e-06
scalar DynamicExhaustivePollingSystem.monitor "Probability C1_1_1_n1_n2[2][6]" 0
scalar DynamicExhaustivePollingSystem.monitor "Probability C1_1_1_n1_n2[2][7]" 6.3786873703723e-07
scalar DynamicExhaustivePollingSystem.monitor "Probability C1_1_1_n1_n2[2][8]" 0
scalar DynamicExhaustivePollingSystem.monitor "Probability C1_1_1_n1_n2[2][9]" 0
scalar DynamicExhaustivePollingSystem.monitor "Probability C1_1_1_n1_n2[2][10]" 0
scalar DynamicExhaustivePollingSystem.monitor "Probability C1_1_1_n1_n2[2][11]" 0
scalar DynamicExhaustivePollingSystem.monitor "Probability C1_1_1_n1_n2[2][12]" 0
scalar DynamicExhaustivePollingSystem.monitor "Probability C1_1_1_n1_n2[2][13]" 0
scalar DynamicExhaustivePollingSystem.monitor "Probability C1_1_1_n1_n2[2][14]" 0
scalar DynamicExhaustivePollingSystem.monitor "Probability C1_1_1_n1_n2[2][15]" 0
scalar DynamicExhaustivePollingSystem.monitor "Probability C1_1_1_n1_n2[2][16]" 0
scalar DynamicExhaustivePollingSystem.monitor "Probability C1_1_1_n1_n2[2][17]" 0
scalar DynamicExhaustivePollingSystem.monitor "Probability C1_1_1_n1_n2[2][18]" 0
scalar DynamicExhaustivePollingSystem.monitor "Probability C1_1_1_n1_n2[2][19]" 0
scalar DynamicExhaustivePollingSystem.monitor "Probability C1_1_1_n1_n2[3][0]" 0.018260129378095
scalar DynamicExhaustivePollingSystem.monitor "Probability C1_1_1_n1_n2[3][1]" 0.00039071858040545
scalar DynamicExhaustivePollingSystem.monitor "Probability C1_1_1_n1_n2[3][2]" 1.0171060084203e-05
scalar DynamicExhaustivePollingSystem.monitor "Probability C1_1_1_n1_n2[3][3]" 0
scalar DynamicExhaustivePollingSystem.monitor "Probability C1_1_1_n1_n2[3][4]" 0
scalar DynamicExhaustivePollingSystem.monitor "Probability C1_1_1_n1_n2[3][5]" 0
scalar DynamicExhaustivePollingSystem.monitor "Probability C1_1_1_n1_n2[3][6]" 0
scalar DynamicExhaustivePollingSystem.monitor "Probability C1_1_1_n1_n2[3][7]" 0
scalar DynamicExhaustivePollingSystem.monitor "Probability C1_1_1_n1_n2[3][8]" 0
scalar DynamicExhaustivePollingSystem.monitor "Probability C1_1_1_n1_n2[3][9]" 0
scalar DynamicExhaustivePollingSystem.monitor "Probability C1_1_1_n1_n2[3][10]" 0
scalar DynamicExhaustivePollingSystem.monitor "Probability C1_1_1_n1_n2[3][11]" 0
scalar DynamicExhaustivePollingSystem.monitor "Probability C1_1_1_n1_n2[3][12]" 0
scalar DynamicExhaustivePollingSystem.monitor "Probability C1_1_1_n1_n2[3][13]" 0
scalar DynamicExhaustivePollingSystem.monitor "Probability C1_1_1_n1_n2[3][14]" 0
scalar DynamicExhaustivePollingSystem.monitor "Probability C1_1_1_n1_n2[3][15]" 0
scalar DynamicExhaustivePollingSystem.monitor "Probability C1_1_1_n1_n2[3][16]" 0
scalar DynamicExhaustivePollingSystem.monitor "Probability C1_1_1_n1_n2[3][17]" 0
scalar DynamicExhaustivePollingSystem.monitor "Probability C1_1_1_n1_n2[3][18]" 0
scalar DynamicExhaustivePollingSystem.monitor "Probability C1_1_1_n1_n2[3][19]" 0
scalar DynamicExhaustivePollingSystem.monitor "Probability C1_1_1_n1_n2[4][0]" 0.0065402144873743
scalar DynamicExhaustivePollingSystem.monitor "Probability C1_1_1_n1_n2[4][1]" 0.00011569752761453
scalar DynamicExhaustivePollingSystem.monitor "Probability C1_1_1_n1_n2[4][2]" 0
scalar DynamicExhaustivePollingSystem.monitor "Probability C1_1_1_n1_n2[4][3]" 0
scalar DynamicExhaustivePollingSystem.monitor "Probability C1_1_1_n1_n2[4][4]" 0
scalar DynamicExhaustivePollingSystem.monitor "Probability C1_1_1_n1_n2[4][5]" 0
scalar DynamicExhaustivePollingSystem.monitor "Probability C1_1_1_n1_n2[4][6]" 0
scalar DynamicExhaustivePollingSystem.monitor "Probability C1_1_1_n1_n2[4][7]" 0
scalar DynamicExhaustivePollingSystem.monitor "Probability C1_1_1_n1_n2[4][8]" 0
scalar DynamicExhaustivePollingSystem.monitor "Probability C1_1_1_n1_n2[4][9]" 0
scalar DynamicExhaustivePollingSystem.monitor "Probability C1_1_1_n1_n2[4][10]" 0
scalar DynamicExhaustivePollingSystem.monitor "Probability C1_1_1_n1_n2[4][11]" 0
scalar DynamicExhaustivePollingSystem.monitor "Probability C1_1_1_n1_n2[4][12]" 0
scalar DynamicExhaustivePollingSystem.monitor "Probability C1_1_1_n1_n2[4][13]" 0
scalar DynamicExhaustivePollingSystem.monitor "Probability C1_1_1_n1_n2[4][14]" 0
scalar DynamicExhaustivePollingSystem.monitor "Probability C1_1_1_n1_n2[4][15]" 0
scalar DynamicExhaustivePollingSystem.monitor "Probability C1_1_1_n1_n2[4][16]" 0
scalar DynamicExhaustivePollingSystem.monitor "Probability C1_1_1_n1_n2[4][17]" 0
scalar DynamicExhaustivePollingSystem.monitor "Probability C1_1_1_n1_n2[4][18]" 0
scalar DynamicExhaustivePollingSystem.monitor "Probability C1_1_1_n1_n2[4][19]" 0
scalar DynamicExhaustivePollingSystem.monitor "Probability C1_1_1_n1_n2[5][0]" 0.0024151925870352
scalar DynamicExhaustivePollingSystem.monitor "Probability C1_1_1_n1_n2[5][1]" 3.989194596713e-05
scalar DynamicExhaustivePollingSystem.monitor "Probability C1_1_1_n1_n2[5][2]" 0
scalar DynamicExhaustivePollingSystem.monitor "Probability C1_1_1_n1_n2[5][3]" 0
scalar DynamicExhaustivePollingSystem.monitor "Probability C1_1_1_n1_n2[5][4]" 0
scalar DynamicExhaustivePollingSystem.monitor "Probability C1_1_1_n1_n2[5][5]" 0
scalar DynamicExhaustivePollingSystem.monitor "Probability C1_1_1_n1_n2[5][6]" 0
scalar DynamicExhaustivePollingSystem.monitor "Probability C1_1_1_n1_n2[5][7]" 0
scalar DynamicExhaustivePollingSystem.monitor "Probability C1_1_1_n1_n2[5][8]" 0
scalar DynamicExhaustivePollingSystem.monitor "Probability C1_1_1_n1_n2[5][9]" 0
scalar DynamicExhaustivePollingSystem.monitor "Probability C1_1_1_n1_n2[5][10]" 0
scalar DynamicExhaustivePollingSystem.monitor "Probability C1_1_1_n1_n2[5][11]" 0
scalar DynamicExhaustivePollingSystem.monitor "Probability C1_1_1_n1_n2[5][12]" 0
scalar DynamicExhaustivePollingSystem.monitor "Probability C1_1_1_n1_n2[5][13]" 0
scalar DynamicExhaustivePollingSystem.monitor "Probability C1_1_1_n1_n2[5][14]" 0
scalar DynamicExhaustivePollingSystem.monitor "Probability C1_1_1_n1_n2[5][15]" 0
scalar DynamicExhaustivePollingSystem.monitor "Probability C1_1_1_n1_n2[5][16]" 0
scalar DynamicExhaustivePollingSystem.monitor "Probability C1_1_1_n1_n2[5][17]" 0
scalar DynamicExhaustivePollingSystem.monitor "Probability C1_1_1_n1_n2[5][18]" 0
scalar DynamicExhaustivePollingSystem.monitor "Probability C1_1_1_n1_n2[5][19]" 0
scalar DynamicExhaustivePollingSystem.monitor "Probability C1_1_1_n1_n2[6][0]" 0.0010491375579414
scalar DynamicExhaustivePollingSystem.monitor "Probability C1_1_1_n1_n2[6][1]" 1.2194291234402e-05
scalar DynamicExhaustivePollingSystem.monitor "Probability C1_1_1_n1_n2[6][2]" 6.9715342941167e-08
scalar DynamicExhaustivePollingSystem.monitor "Probability C1_1_1_n1_n2[6][3]" 0
scalar DynamicExhaustivePollingSystem.monitor "Probability C1_1_1_n1_n2[6][4]" 0
scalar DynamicExhaustivePollingSystem.monitor "Probability C1_1_1_n1_n2[6][5]" 0
scalar DynamicExhaustivePollingSystem.monitor "Probability C1_1_1_n1_n2[6][6]" 0
scalar DynamicExhaustivePollingSystem.monitor "Probability C1_1_1_n1_n2[6][7]" 0
scalar DynamicExhaustivePollingSystem.monitor "Probability C1_1_1_n1_n2[6][8]" 0
scalar DynamicExhaustivePollingSystem.monitor "Probability C1_1_1_n1_n2[6][9]" 0
scalar DynamicExhaustivePollingSystem.monitor "Probability C1_1_1_n1_n2[6][10]" 0
scalar DynamicExhaustivePollingSystem.monitor "Probability C1_1_1_n1_n2[6][11]" 0
scalar DynamicExhaustivePollingSystem.monitor "Probability C1_1_1_n1_n2[6][12]" 0
scalar DynamicExhaustivePollingSystem.monitor "Probability C1_1_1_n1_n2[6][13]" 0
scalar DynamicExhaustivePollingSystem.monitor "Probability C1_1_1_n1_n2[6][14]" 0
scalar DynamicExhaustivePollingSystem.monitor "Probability C1_1_1_n1_n2[6][15]" 0
scalar DynamicExhaustivePollingSystem.monitor "Probability C1_1_1_n1_n2[6][16]" 0
scalar DynamicExhaustivePollingSystem.monitor "Probability C1_1_1_n1_n2[6][17]" 0
scalar DynamicExhaustivePollingSystem.monitor "Probability C1_1_1_n1_n2[6][18]" 0
scalar DynamicExhaustivePollingSystem.monitor "Probability C1_1_1_n1_n2[6][19]" 0
scalar DynamicExhaustivePollingSystem.monitor "Probability C1_1_1_n1_n2[7][0]" 0.00043571273292866
scalar DynamicExhaustivePollingSystem.monitor "Probability C1_1_1_n1_n2[7][1]" 1.3449787205373e-05
scalar DynamicExhaustivePollingSystem.monitor "Probability C1_1_1_n1_n2[7][2]" 0
scalar DynamicExhaustivePollingSystem.monitor "Probability C1_1_1_n1_n2[7][3]" 0
scalar DynamicExhaustivePollingSystem.monitor "Probability C1_1_1_n1_n2[7][4]" 0
scalar DynamicExhaustivePollingSystem.monitor "Probability C1_1_1_n1_n2[7][5]" 0
scalar DynamicExhaustivePollingSystem.monitor "Probability C1_1_1_n1_n2[7][6]" 0
scalar DynamicExhaustivePollingSystem.monitor "Probability C1_1_1_n1_n2[7][7]" 0
scalar DynamicExhaustivePollingSystem.monitor "Probability C1_1_1_n1_n2[7][8]" 0
scalar DynamicExhaustivePollingSystem.monitor "Probability C1_1_1_n1_n2[7][9]" 0
scalar DynamicExhaustivePollingSystem.monitor "Probability C1_1_1_n1_n2[7][10]" 0
scalar DynamicExhaustivePollingSystem.monitor "Probability C1_1_1_n1_n2[7][11]" 0
scalar DynamicExhaustivePollingSystem.monitor "Probability C1_1_1_n1_n2[7][12]" 0
scalar DynamicExhaustivePollingSystem.monitor "Probability C1_1_1_n1_n2[7][13]" 0
scalar DynamicExhaustivePollingSystem.monitor "Probability C1_1_1_n1_n2[7][14]" 0
scalar DynamicExhaustivePollingSystem.monitor "Probability C1_1_1_n1_n2[7][15]" 0
scalar DynamicExhaustivePollingSystem.monitor "Probability C1_1_1_n1_n2[7][16]" 0
scalar DynamicExhaustivePollingSystem.monitor "Probability C1_1_1_n1_n2[7][17]" 0
scalar DynamicExhaustivePollingSystem.monitor "Probability C1_1_1_n1_n2[7][18]" 0
scalar DynamicExhaustivePollingSystem.monitor "Probability C1_1_1_n1_n2[7][19]" 0
scalar DynamicExhaustivePollingSystem.monitor "Probability C1_1_1_n1_n2[8][0]" 0.00017713171516268
scalar DynamicExhaustivePollingSystem.monitor "Probability C1_1_1_n1_n2[8][1]" 7.8025174178745e-06
scalar DynamicExhaustivePollingSystem.monitor "Probability C1_1_1_n1_n2[8][2]" 0
scalar DynamicExhaustivePollingSystem.monitor "Probability C1_1_1_n1_n2[8][3]" 0
scalar DynamicExhaustivePollingSystem.monitor "Probability C1_1_1_n1_n2[8][4]" 0
scalar DynamicExhaustivePollingSystem.monitor "Probability C1_1_1_n1_n2[8][5]" 0
scalar DynamicExhaustivePollingSystem.monitor "Probability C1_1_1_n1_n2[8][6]" 0
scalar DynamicExhaustivePollingSystem.monitor "Probability C1_1_1_n1_n2[8][7]" 0
scalar DynamicExhaustivePollingSystem.monitor "Probability C1_1_1_n1_n2[8][8]" 0
scalar DynamicExhaustivePollingSystem.monitor "Probability C1_1_1_n1_n2[8][9]" 0
scalar DynamicExhaustivePollingSystem.monitor "Probability C1_1_1_n1_n2[8][10]" 0
scalar DynamicExhaustivePollingSystem.monitor "Probability C1_1_1_n1_n2[8][11]" 0
scalar DynamicExhaustivePollingSystem.monitor "Probability C1_1_1_n1_n2[8][12]" 0
scalar DynamicExhaustivePollingSystem.monitor "Probability C1_1_1_n1_n2[8][13]" 0
scalar DynamicExhaustivePollingSystem.monitor "Probability C1_1_1_n1_n2[8][14]" 0
scalar DynamicExhaustivePollingSystem.monitor "Probability C1_1_1_n1_n2[8][15]" 0
scalar DynamicExhaustivePollingSystem.monitor "Probability C1_1_1_n1_n2[8][16]" 0
scalar DynamicExhaustivePollingSystem.monitor "Probability C1_1_1_n1_n2[8][17]" 0
scalar DynamicExhaustivePollingSystem.monitor "Probability C1_1_1_n1_n2[8][18]" 0
scalar DynamicExhaustivePollingSystem.monitor "Probability C1_1_1_n1_n2[8][19]" 0
scalar DynamicExhaustivePollingSystem.monitor "Probability C1_1_1_n1_n2[9][0]" 6.0356845374681e-05
scalar DynamicExhaustivePollingSystem.monitor "Probability C1_1_1_n1_n2[9][1]" 0
scalar DynamicExhaustivePollingSystem.monitor "Probability C1_1_1_n1_n2[9][2]" 0
scalar DynamicExhaustivePollingSystem.monitor "Probability C1_1_1_n1_n2[9][3]" 0
scalar DynamicExhaustivePollingSystem.monitor "Probability C1_1_1_n1_n2[9][4]" 0
scalar DynamicExhaustivePollingSystem.monitor "Probability C1_1_1_n1_n2[9][5]" 0
scalar DynamicExhaustivePollingSystem.monitor "Probability C1_1_1_n1_n2[9][6]" 0
scalar DynamicExhaustivePollingSystem.monitor "Probability C1_1_1_n1_n2[9][7]" 0
scalar DynamicExhaustivePollingSystem.monitor "Probability C1_1_1_n1_n2[9][8]" 0
scalar DynamicExhaustivePollingSystem.monitor "Probability C1_1_1_n1_n2[9][9]" 0
scalar DynamicExhaustivePollingSystem.monitor "Probability C1_1_1_n1_n2[9][10]" 0
scalar DynamicExhaustivePollingSystem.monitor "Probability C1_1_1_n1_n2[9][11]" 0
scalar DynamicExhaustivePollingSystem.monitor "Probability C1_1_1_n1_n2[9][12]" 0
scalar DynamicExhaustivePollingSystem.monitor "Probability C1_1_1_n1_n2[9][13]" 0
scalar DynamicExhaustivePollingSystem.monitor "Probability C1_1_1_n1_n2[9][14]" 0
scalar DynamicExhaustivePollingSystem.monitor "Probability C1_1_1_n1_n2[9][15]" 0
scalar DynamicExhaustivePollingSystem.monitor "Probability C1_1_1_n1_n2[9][16]" 0
scalar DynamicExhaustivePollingSystem.monitor "Probability C1_1_1_n1_n2[9][17]" 0
scalar DynamicExhaustivePollingSystem.monitor "Probability C1_1_1_n1_n2[9][18]" 0
scalar DynamicExhaustivePollingSystem.monitor "Probability C1_1_1_n1_n2[9][19]" 0
scalar DynamicExhaustivePollingSystem.monitor "Probability C1_1_1_n1_n2[10][0]" 2.329091236669e-05
scalar DynamicExhaustivePollingSystem.monitor "Probability C1_1_1_n1_n2[10][1]" 5.4241581876121e-06
scalar DynamicExhaustivePollingSystem.monitor "Probability C1_1_1_n1_n2[10][2]" 0
scalar DynamicExhaustivePollingSystem.monitor "Probability C1_1_1_n1_n2[10][3]" 0
scalar DynamicExhaustivePollingSystem.monitor "Probability C1_1_1_n1_n2[10][4]" 0
scalar DynamicExhaustivePollingSystem.monitor "Probability C1_1_1_n1_n2[10][5]" 0
scalar DynamicExhaustivePollingSystem.monitor "Probability C1_1_1_n1_n2[10][6]" 0
scalar DynamicExhaustivePollingSystem.monitor "Probability C1_1_1_n1_n2[10][7]" 0
scalar DynamicExhaustivePollingSystem.monitor "Probability C1_1_1_n1_n2[10][8]" 0
scalar DynamicExhaustivePollingSystem.monitor "Probability C1_1_1_n1_n2[10][9]" 0
scalar DynamicExhaustivePollingSystem.monitor "Probability C1_1_1_n1_n2[10][10]" 0
scalar DynamicExhaustivePollingSystem.monitor "Probability C1_1_1_n1_n2[10][11]" 0
scalar DynamicExhaustivePollingSystem.monitor "Probability C1_1_1_n1_n2[10][12]" 0
scalar DynamicExhaustivePollingSystem.monitor "Probability C1_1_1_n1_n2[10][13]" 0
scalar DynamicExhaustivePollingSystem.monitor "Probability C1_1_1_n1_n2[10][14]" 0
scalar DynamicExhaustivePollingSystem.monitor "Probability C1_1_1_n1_n2[10][15]" 0
scalar DynamicExhaustivePollingSystem.monitor "Probability C1_1_1_n1_n2[10][16]" 0
scalar DynamicExhaustivePollingSystem.monitor "Probability C1_1_1_n1_n2[10][17]" 0
scalar DynamicExhaustivePollingSystem.monitor "Probability C1_1_1_n1_n2[10][18]" 0
scalar DynamicExhaustivePollingSystem.monitor "Probability C1_1_1_n1_n2[10][19]" 0
scalar DynamicExhaustivePollingSystem.monitor "Probability C1_1_1_n1_n2[11][0]" 1.4052868211199e-05
scalar DynamicExhaustivePollingSystem.monitor "Probability C1_1_1_n1_n2[11][1]" 0
scalar DynamicExhaustivePollingSystem.monitor "Probability C1_1_1_n1_n2[11][2]" 0
scalar DynamicExhaustivePollingSystem.monitor "Probability C1_1_1_n1_n2[11][3]" 0
scalar DynamicExhaustivePollingSystem.monitor "Probability C1_1_1_n1_n2[11][4]" 0
scalar DynamicExhaustivePollingSystem.monitor "Probability C1_1_1_n1_n2[11][5]" 0
scalar DynamicExhaustivePollingSystem.monitor "Probability C1_1_1_n1_n2[11][6]" 0
scalar DynamicExhaustivePollingSystem.monitor "Probability C1_1_1_n1_n2[11][7]" 0
scalar DynamicExhaustivePollingSystem.monitor "Probability C1_1_1_n1_n2[11][8]" 0
scalar DynamicExhaustivePollingSystem.monitor "Probability C1_1_1_n1_n2[11][9]" 0
scalar DynamicExhaustivePollingSystem.monitor "Probability C1_1_1_n1_n2[11][10]" 0
scalar DynamicExhaustivePollingSystem.monitor "Probability C1_1_1_n1_n2[11][11]" 0
scalar DynamicExhaustivePollingSystem.monitor "Probability C1_1_1_n1_n2[11][12]" 0
scalar DynamicExhaustivePollingSystem.monitor "Probability C1_1_1_n1_n2[11][13]" 0
scalar DynamicExhaustivePollingSystem.monitor "Probability C1_1_1_n1_n2[11][14]" 0
scalar DynamicExhaustivePollingSystem.monitor "Probability C1_1_1_n1_n2[11][15]" 0
scalar DynamicExhaustivePollingSystem.monitor "Probability C1_1_1_n1_n2[11][16]" 0
scalar DynamicExhaustivePollingSystem.monitor "Probability C1_1_1_n1_n2[11][17]" 0
scalar DynamicExhaustivePollingSystem.monitor "Probability C1_1_1_n1_n2[11][18]" 0
scalar DynamicExhaustivePollingSystem.monitor "Probability C1_1_1_n1_n2[11][19]" 0
scalar DynamicExhaustivePollingSystem.monitor "Probability C1_1_1_n1_n2[12][0]" 1.1228467604701e-05
scalar DynamicExhaustivePollingSystem.monitor "Probability C1_1_1_n1_n2[12][1]" 0
scalar DynamicExhaustivePollingSystem.monitor "Probability C1_1_1_n1_n2[12][2]" 0
scalar DynamicExhaustivePollingSystem.monitor "Probability C1_1_1_n1_n2[12][3]" 0
scalar DynamicExhaustivePollingSystem.monitor "Probability C1_1_1_n1_n2[12][4]" 0
scalar DynamicExhaustivePollingSystem.monitor "Probability C1_1_1_n1_n2[12][5]" 0
scalar DynamicExhaustivePollingSystem.monitor "Probability C1_1_1_n1_n2[12][6]" 0
scalar DynamicExhaustivePollingSystem.monitor "Probability C1_1_1_n1_n2[12][7]" 0
scalar DynamicExhaustivePollingSystem.monitor "Probability C1_1_1_n1_n2[12][8]" 0
scalar DynamicExhaustivePollingSystem.monitor "Probability C1_1_1_n1_n2[12][9]" 0
scalar DynamicExhaustivePollingSystem.monitor "Probability C1_1_1_n1_n2[12][10]" 0
scalar DynamicExhaustivePollingSystem.monitor "Probability C1_1_1_n1_n2[12][11]" 0
scalar DynamicExhaustivePollingSystem.monitor "Probability C1_1_1_n1_n2[12][12]" 0
scalar DynamicExhaustivePollingSystem.monitor "Probability C1_1_1_n1_n2[12][13]" 0
scalar DynamicExhaustivePollingSystem.monitor "Probability C1_1_1_n1_n2[12][14]" 0
scalar DynamicExhaustivePollingSystem.monitor "Probability C1_1_1_n1_n2[12][15]" 0
scalar DynamicExhaustivePollingSystem.monitor "Probability C1_1_1_n1_n2[12][16]" 0
scalar DynamicExhaustivePollingSystem.monitor "Probability C1_1_1_n1_n2[12][17]" 0
scalar DynamicExhaustivePollingSystem.monitor "Probability C1_1_1_n1_n2[12][18]" 0
scalar DynamicExhaustivePollingSystem.monitor "Probability C1_1_1_n1_n2[12][19]" 0
scalar DynamicExhaustivePollingSystem.monitor "Probability C1_1_1_n1_n2[13][0]" 2.5283128984864e-06
scalar DynamicExhaustivePollingSystem.monitor "Probability C1_1_1_n1_n2[13][1]" 0
scalar DynamicExhaustivePollingSystem.monitor "Probability C1_1_1_n1_n2[13][2]" 0
scalar DynamicExhaustivePollingSystem.monitor "Probability C1_1_1_n1_n2[13][3]" 0
scalar DynamicExhaustivePollingSystem.monitor "Probability C1_1_1_n1_n2[13][4]" 0
scalar DynamicExhaustivePollingSystem.monitor "Probability C1_1_1_n1_n2[13][5]" 0
scalar DynamicExhaustivePollingSystem.monitor "Probability C1_1_1_n1_n2[13][6]" 0
scalar DynamicExhaustivePollingSystem.monitor "Probability C1_1_1_n1_n2[13][7]" 0
scalar DynamicExhaustivePollingSystem.monitor "Probability C1_1_1_n1_n2[13][8]" 0
scalar DynamicExhaustivePollingSystem.monitor "Probability C1_1_1_n1_n2[13][9]" 0
scalar DynamicExhaustivePollingSystem.monitor "Probability C1_1_1_n1_n2[13][10]" 0
scalar DynamicExhaustivePollingSystem.monitor "Probability C1_1_1_n1_n2[13][11]" 0
scalar DynamicExhaustivePollingSystem.monitor "Probability C1_1_1_n1_n2[13][12]" 0
scalar DynamicExhaustivePollingSystem.monitor "Probability C1_1_1_n1_n2[13][13]" 0
scalar DynamicExhaustivePollingSystem.monitor "Probability C1_1_1_n1_n2[13][14]" 0
scalar DynamicExhaustivePollingSystem.monitor "Probability C1_1_1_n1_n2[13][15]" 0
scalar DynamicExhaustivePollingSystem.monitor "Probability C1_1_1_n1_n2[13][16]" 0
scalar DynamicExhaustivePollingSystem.monitor "Probability C1_1_1_n1_n2[13][17]" 0
scalar DynamicExhaustivePollingSystem.monitor "Probability C1_1_1_n1_n2[13][18]" 0
scalar DynamicExhaustivePollingSystem.monitor "Probability C1_1_1_n1_n2[13][19]" 0
scalar DynamicExhaustivePollingSystem.monitor "Probability C1_1_1_n1_n2[14][0]" 1.7020721000757e-07
scalar DynamicExhaustivePollingSystem.monitor "Probability C1_1_1_n1_n2[14][1]" 0
scalar DynamicExhaustivePollingSystem.monitor "Probability C1_1_1_n1_n2[14][2]" 0
scalar DynamicExhaustivePollingSystem.monitor "Probability C1_1_1_n1_n2[14][3]" 0
scalar DynamicExhaustivePollingSystem.monitor "Probability C1_1_1_n1_n2[14][4]" 0
scalar DynamicExhaustivePollingSystem.monitor "Probability C1_1_1_n1_n2[14][5]" 0
scalar DynamicExhaustivePollingSystem.monitor "Probability C1_1_1_n1_n2[14][6]" 0
scalar DynamicExhaustivePollingSystem.monitor "Probability C1_1_1_n1_n2[14][7]" 0
scalar DynamicExhaustivePollingSystem.monitor "Probability C1_1_1_n1_n2[14][8]" 0
scalar DynamicExhaustivePollingSystem.monitor "Probability C1_1_1_n1_n2[14][9]" 0
scalar DynamicExhaustivePollingSystem.monitor "Probability C1_1_1_n1_n2[14][10]" 0
scalar DynamicExhaustivePollingSystem.monitor "Probability C1_1_1_n1_n2[14][11]" 0
scalar DynamicExhaustivePollingSystem.monitor "Probability C1_1_1_n1_n2[14][12]" 0
scalar DynamicExhaustivePollingSystem.monitor "Probability C1_1_1_n1_n2[14][13]" 0
scalar DynamicExhaustivePollingSystem.monitor "Probability C1_1_1_n1_n2[14][14]" 0
scalar DynamicExhaustivePollingSystem.monitor "Probability C1_1_1_n1_n2[14][15]" 0
scalar DynamicExhaustivePollingSystem.monitor "Probability C1_1_1_n1_n2[14][16]" 0
scalar DynamicExhaustivePollingSystem.monitor "Probability C1_1_1_n1_n2[14][17]" 0
scalar DynamicExhaustivePollingSystem.monitor "Probability C1_1_1_n1_n2[14][18]" 0
scalar DynamicExhaustivePollingSystem.monitor "Probability C1_1_1_n1_n2[14][19]" 0
scalar DynamicExhaustivePollingSystem.monitor "Probability C1_1_1_n1_n2[15][0]" 2.7962673198848e-06
scalar DynamicExhaustivePollingSystem.monitor "Probability C1_1_1_n1_n2[15][1]" 0
scalar DynamicExhaustivePollingSystem.monitor "Probability C1_1_1_n1_n2[15][2]" 0
scalar DynamicExhaustivePollingSystem.monitor "Probability C1_1_1_n1_n2[15][3]" 0
scalar DynamicExhaustivePollingSystem.monitor "Probability C1_1_1_n1_n2[15][4]" 0
scalar DynamicExhaustivePollingSystem.monitor "Probability C1_1_1_n1_n2[15][5]" 0
scalar DynamicExhaustivePollingSystem.monitor "Probability C1_1_1_n1_n2[15][6]" 0
scalar DynamicExhaustivePollingSystem.monitor "Probability C1_1_1_n1_n2[15][7]" 0
scalar DynamicExhaustivePollingSystem.monitor "Probability C1_1_1_n1_n2[15][8]" 0
scalar DynamicExhaustivePollingSystem.monitor "Probability C1_1_1_n1_n2[15][9]" 0
scalar DynamicExhaustivePollingSystem.monitor "Probability C1_1_1_n1_n2[15][10]" 0
scalar DynamicExhaustivePollingSystem.monitor "Probability C1_1_1_n1_n2[15][11]" 0
scalar DynamicExhaustivePollingSystem.monitor "Probability C1_1_1_n1_n2[15][12]" 0
scalar DynamicExhaustivePollingSystem.monitor "Probability C1_1_1_n1_n2[15][13]" 0
scalar DynamicExhaustivePollingSystem.monitor "Probability C1_1_1_n1_n2[15][14]" 0
scalar DynamicExhaustivePollingSystem.monitor "Probability C1_1_1_n1_n2[15][15]" 0
scalar DynamicExhaustivePollingSystem.monitor "Probability C1_1_1_n1_n2[15][16]" 0
scalar DynamicExhaustivePollingSystem.monitor "Probability C1_1_1_n1_n2[15][17]" 0
scalar DynamicExhaustivePollingSystem.monitor "Probability C1_1_1_n1_n2[15][18]" 0
scalar DynamicExhaustivePollingSystem.monitor "Probability C1_1_1_n1_n2[15][19]" 0
scalar DynamicExhaustivePollingSystem.monitor "Probability C1_1_1_n1_n2[16][0]" 0
scalar DynamicExhaustivePollingSystem.monitor "Probability C1_1_1_n1_n2[16][1]" 0
scalar DynamicExhaustivePollingSystem.monitor "Probability C1_1_1_n1_n2[16][2]" 0
scalar DynamicExhaustivePollingSystem.monitor "Probability C1_1_1_n1_n2[16][3]" 0
scalar DynamicExhaustivePollingSystem.monitor "Probability C1_1_1_n1_n2[16][4]" 0
scalar DynamicExhaustivePollingSystem.monitor "Probability C1_1_1_n1_n2[16][5]" 0
scalar DynamicExhaustivePollingSystem.monitor "Probability C1_1_1_n1_n2[16][6]" 0
scalar DynamicExhaustivePollingSystem.monitor "Probability C1_1_1_n1_n2[16][7]" 0
scalar DynamicExhaustivePollingSystem.monitor "Probability C1_1_1_n1_n2[16][8]" 0
scalar DynamicExhaustivePollingSystem.monitor "Probability C1_1_1_n1_n2[16][9]" 0
scalar DynamicExhaustivePollingSystem.monitor "Probability C1_1_1_n1_n2[16][10]" 0
scalar DynamicExhaustivePollingSystem.monitor "Probability C1_1_1_n1_n2[16][11]" 0
scalar DynamicExhaustivePollingSystem.monitor "Probability C1_1_1_n1_n2[16][12]" 0
scalar DynamicExhaustivePollingSystem.monitor "Probability C1_1_1_n1_n2[16][13]" 0
scalar DynamicExhaustivePollingSystem.monitor "Probability C1_1_1_n1_n2[16][14]" 0
scalar DynamicExhaustivePollingSystem.monitor "Probability C1_1_1_n1_n2[16][15]" 0
scalar DynamicExhaustivePollingSystem.monitor "Probability C1_1_1_n1_n2[16][16]" 0
scalar DynamicExhaustivePollingSystem.monitor "Probability C1_1_1_n1_n2[16][17]" 0
scalar DynamicExhaustivePollingSystem.monitor "Probability C1_1_1_n1_n2[16][18]" 0
scalar DynamicExhaustivePollingSystem.monitor "Probability C1_1_1_n1_n2[16][19]" 0
scalar DynamicExhaustivePollingSystem.monitor "Probability C1_1_1_n1_n2[17][0]" 0
scalar DynamicExhaustivePollingSystem.monitor "Probability C1_1_1_n1_n2[17][1]" 0
scalar DynamicExhaustivePollingSystem.monitor "Probability C1_1_1_n1_n2[17][2]" 0
scalar DynamicExhaustivePollingSystem.monitor "Probability C1_1_1_n1_n2[17][3]" 0
scalar DynamicExhaustivePollingSystem.monitor "Probability C1_1_1_n1_n2[17][4]" 0
scalar DynamicExhaustivePollingSystem.monitor "Probability C1_1_1_n1_n2[17][5]" 0
scalar DynamicExhaustivePollingSystem.monitor "Probability C1_1_1_n1_n2[17][6]" 0
scalar DynamicExhaustivePollingSystem.monitor "Probability C1_1_1_n1_n2[17][7]" 0
scalar DynamicExhaustivePollingSystem.monitor "Probability C1_1_1_n1_n2[17][8]" 0
scalar DynamicExhaustivePollingSystem.monitor "Probability C1_1_1_n1_n2[17][9]" 0
scalar DynamicExhaustivePollingSystem.monitor "Probability C1_1_1_n1_n2[17][10]" 0
scalar DynamicExhaustivePollingSystem.monitor "Probability C1_1_1_n1_n2[17][11]" 0
scalar DynamicExhaustivePollingSystem.monitor "Probability C1_1_1_n1_n2[17][12]" 0
scalar DynamicExhaustivePollingSystem.monitor "Probability C1_1_1_n1_n2[17][13]" 0
scalar DynamicExhaustivePollingSystem.monitor "Probability C1_1_1_n1_n2[17][14]" 0
scalar DynamicExhaustivePollingSystem.monitor "Probability C1_1_1_n1_n2[17][15]" 0
scalar DynamicExhaustivePollingSystem.monitor "Probability C1_1_1_n1_n2[17][16]" 0
scalar DynamicExhaustivePollingSystem.monitor "Probability C1_1_1_n1_n2[17][17]" 0
scalar DynamicExhaustivePollingSystem.monitor "Probability C1_1_1_n1_n2[17][18]" 0
scalar DynamicExhaustivePollingSystem.monitor "Probability C1_1_1_n1_n2[17][19]" 0
scalar DynamicExhaustivePollingSystem.monitor "Probability C1_1_1_n1_n2[18][0]" 0
scalar DynamicExhaustivePollingSystem.monitor "Probability C1_1_1_n1_n2[18][1]" 0
scalar DynamicExhaustivePollingSystem.monitor "Probability C1_1_1_n1_n2[18][2]" 0
scalar DynamicExhaustivePollingSystem.monitor "Probability C1_1_1_n1_n2[18][3]" 0
scalar DynamicExhaustivePollingSystem.monitor "Probability C1_1_1_n1_n2[18][4]" 0
scalar DynamicExhaustivePollingSystem.monitor "Probability C1_1_1_n1_n2[18][5]" 0
scalar DynamicExhaustivePollingSystem.monitor "Probability C1_1_1_n1_n2[18][6]" 0
scalar DynamicExhaustivePollingSystem.monitor "Probability C1_1_1_n1_n2[18][7]" 0
scalar DynamicExhaustivePollingSystem.monitor "Probability C1_1_1_n1_n2[18][8]" 0
scalar DynamicExhaustivePollingSystem.monitor "Probability C1_1_1_n1_n2[18][9]" 0
scalar DynamicExhaustivePollingSystem.monitor "Probability C1_1_1_n1_n2[18][10]" 0
scalar DynamicExhaustivePollingSystem.monitor "Probability C1_1_1_n1_n2[18][11]" 0
scalar DynamicExhaustivePollingSystem.monitor "Probability C1_1_1_n1_n2[18][12]" 0
scalar DynamicExhaustivePollingSystem.monitor "Probability C1_1_1_n1_n2[18][13]" 0
scalar DynamicExhaustivePollingSystem.monitor "Probability C1_1_1_n1_n2[18][14]" 0
scalar DynamicExhaustivePollingSystem.monitor "Probability C1_1_1_n1_n2[18][15]" 0
scalar DynamicExhaustivePollingSystem.monitor "Probability C1_1_1_n1_n2[18][16]" 0
scalar DynamicExhaustivePollingSystem.monitor "Probability C1_1_1_n1_n2[18][17]" 0
scalar DynamicExhaustivePollingSystem.monitor "Probability C1_1_1_n1_n2[18][18]" 0
scalar DynamicExhaustivePollingSystem.monitor "Probability C1_1_1_n1_n2[18][19]" 0
scalar DynamicExhaustivePollingSystem.monitor "Probability C1_1_1_n1_n2[19][0]" 0
scalar DynamicExhaustivePollingSystem.monitor "Probability C1_1_1_n1_n2[19][1]" 0
scalar DynamicExhaustivePollingSystem.monitor "Probability C1_1_1_n1_n2[19][2]" 0
scalar DynamicExhaustivePollingSystem.monitor "Probability C1_1_1_n1_n2[19][3]" 0
scalar DynamicExhaustivePollingSystem.monitor "Probability C1_1_1_n1_n2[19][4]" 0
scalar DynamicExhaustivePollingSystem.monitor "Probability C1_1_1_n1_n2[19][5]" 0
scalar DynamicExhaustivePollingSystem.monitor "Probability C1_1_1_n1_n2[19][6]" 0
scalar DynamicExhaustivePollingSystem.monitor "Probability C1_1_1_n1_n2[19][7]" 0
scalar DynamicExhaustivePollingSystem.monitor "Probability C1_1_1_n1_n2[19][8]" 0
scalar DynamicExhaustivePollingSystem.monitor "Probability C1_1_1_n1_n2[19][9]" 0
scalar DynamicExhaustivePollingSystem.monitor "Probability C1_1_1_n1_n2[19][10]" 0
scalar DynamicExhaustivePollingSystem.monitor "Probability C1_1_1_n1_n2[19][11]" 0
scalar DynamicExhaustivePollingSystem.monitor "Probability C1_1_1_n1_n2[19][12]" 0
scalar DynamicExhaustivePollingSystem.monitor "Probability C1_1_1_n1_n2[19][13]" 0
scalar DynamicExhaustivePollingSystem.monitor "Probability C1_1_1_n1_n2[19][14]" 0
scalar DynamicExhaustivePollingSystem.monitor "Probability C1_1_1_n1_n2[19][15]" 0
scalar DynamicExhaustivePollingSystem.monitor "Probability C1_1_1_n1_n2[19][16]" 0
scalar DynamicExhaustivePollingSystem.monitor "Probability C1_1_1_n1_n2[19][17]" 0
scalar DynamicExhaustivePollingSystem.monitor "Probability C1_1_1_n1_n2[19][18]" 0
scalar DynamicExhaustivePollingSystem.monitor "Probability C1_1_1_n1_n2[19][19]" 0
scalar DynamicExhaustivePollingSystem.monitor "Probability C1_1_0_n1_n2[0][0]" 11.039441353788
scalar DynamicExhaustivePollingSystem.monitor "Probability C1_1_0_n1_n2[0][1]" 0.20958650551161
scalar DynamicExhaustivePollingSystem.monitor "Probability C1_1_0_n1_n2[0][2]" 0.0039558983032556
scalar DynamicExhaustivePollingSystem.monitor "Probability C1_1_0_n1_n2[0][3]" 8.6061121001161e-05
scalar DynamicExhaustivePollingSystem.monitor "Probability C1_1_0_n1_n2[0][4]" 6.5310288219471e-06
scalar DynamicExhaustivePollingSystem.monitor "Probability C1_1_0_n1_n2[0][5]" 0
scalar DynamicExhaustivePollingSystem.monitor "Probability C1_1_0_n1_n2[0][6]" 0
scalar DynamicExhaustivePollingSystem.monitor "Probability C1_1_0_n1_n2[0][7]" 0
scalar DynamicExhaustivePollingSystem.monitor "Probability C1_1_0_n1_n2[0][8]" 0
scalar DynamicExhaustivePollingSystem.monitor "Probability C1_1_0_n1_n2[0][9]" 0
scalar DynamicExhaustivePollingSystem.monitor "Probability C1_1_0_n1_n2[0][10]" 0
scalar DynamicExhaustivePollingSystem.monitor "Probability C1_1_0_n1_n2[0][11]" 0
scalar DynamicExhaustivePollingSystem.monitor "Probability C1_1_0_n1_n2[0][12]" 0
scalar DynamicExhaustivePollingSystem.monitor "Probability C1_1_0_n1_n2[0][13]" 0
scalar DynamicExhaustivePollingSystem.monitor "Probability C1_1_0_n1_n2[0][14]" 0
scalar DynamicExhaustivePollingSystem.monitor "Probability C1_1_0_n1_n2[0][15]" 0
scalar DynamicExhaustivePollingSystem.monitor "Probability C1_1_0_n1_n2[0][16]" 0
scalar DynamicExhaustivePollingSystem.monitor "Probability C1_1_0_n1_n2[0][17]" 0
scalar DynamicExhaustivePollingSystem.monitor "Probability C1_1_0_n1_n2[0][18]" 0
scalar DynamicExhaustivePollingSystem.monitor "Probability C1_1_0_n1_n2[0][19]" 0
scalar DynamicExhaustivePollingSystem.monitor "Probability C1_1_0_n1_n2[1][0]" 0.75963998732861
scalar DynamicExhaustivePollingSystem.monitor "Probability C1_1_0_n1_n2[1][1]" 0.020571989612399
scalar DynamicExhaustivePollingSystem.monitor "Probability C1_1_0_n1_n2[1][2]" 0.00054969576878656
scalar DynamicExhaustivePollingSystem.monitor "Probability C1_1_0_n1_n2[1][3]" 1.0289285873685e-05
scalar DynamicExhaustivePollingSystem.monitor "Probability C1_1_0_n1_n2[1][4]" 0
scalar DynamicExhaustivePollingSystem.monitor "Probability C1_1_0_n1_n2[1][5]" 0
scalar DynamicExhaustivePollingSystem.monitor "Probability C1_1_0_n1_n2[1][6]" 0
scalar DynamicExhaustivePollingSystem.monitor "Probability C1_1_0_n1_n2[1][7]" 0
scalar DynamicExhaustivePollingSystem.monitor "Probability C1_1_0_n1_n2[1][8]" 0
scalar DynamicExhaustivePollingSystem.monitor "Probability C1_1_0_n1_n2[1][9]" 0
scalar DynamicExhaustivePollingSystem.monitor "Probability C1_1_0_n1_n2[1][10]" 0
scalar DynamicExhaustivePollingSystem.monitor "Probability C1_1_0_n1_n2[1][11]" 0
scalar DynamicExhaustivePollingSystem.monitor "Probability C1_1_0_n1_n2[1][12]" 0
scalar DynamicExhaustivePollingSystem.monitor "Probability C1_1_0_n1_n2[1][13]" 0
scalar DynamicExhaustivePollingSystem.monitor "Probability C1_1_0_n1_n2[1][14]" 0
scalar DynamicExhaustivePollingSystem.monitor "Probability C1_1_0_n1_n2[1][15]" 0
scalar DynamicExhaustivePollingSystem.monitor "Probability C1_1_0_n1_n2[1][16]" 0
scalar DynamicExhaustivePollingSystem.monitor "Probability C1_1_0_n1_n2[1][17]" 0
scalar DynamicExhaustivePollingSystem.monitor "Probability C1_1_0_n1_n2[1][18]" 0
scalar DynamicExhaustivePollingSystem.monitor "Probability C1_1_0_n1_n2[1][19]" 0
scalar DynamicExhaustivePollingSystem.monitor "Probability C1_1_0_n1_n2[2][0]" 0.076488801109669
scalar DynamicExhaustivePollingSystem.monitor "Probability C1_1_0_n1_n2[2][1]" 0.0020720938860204
scalar DynamicExhaustivePollingSystem.monitor "Probability C1_1_0_n1_n2[2][2]" 7.2144358415753e-05
scalar DynamicExhaustivePollingSystem.monitor "Probability C1_1_0_n1_n2[2][3]" 0
scalar DynamicExhaustivePollingSystem.monitor "Probability C1_1_0_n1_n2[2][4]" 0
scalar DynamicExhaustivePollingSystem.monitor "Probability C1_1_0_n1_n2[2][5]" 0
scalar DynamicExhaustivePollingSystem.monitor "Probability C1_1_0_n1_n2[2][6]" 0
scalar DynamicExhaustivePollingSystem.monitor "Probability C1_1_0_n1_n2[2][7]" 0
scalar DynamicExhaustivePollingSystem.monitor "Probability C1_1_0_n1_n2[2][8]" 0
scalar DynamicExhaustivePollingSystem.monitor "Probability C1_1_0_n1_n2[2][9]" 0
scalar DynamicExhaustivePollingSystem.monitor "Probability C1_1_0_n1_n2[2][10]" 0
scalar DynamicExhaustivePollingSystem.monitor "Probability C1_1_0_n1_n2[2][11]" 0
scalar DynamicExhaustivePollingSystem.monitor "Probability C1_1_0_n1_n2[2][12]" 0
scalar DynamicExhaustivePollingSystem.monitor "Probability C1_1_0_n1_n2[2][13]" 0
scalar DynamicExhaustivePollingSystem.monitor "Probability C1_1_0_n1_n2[2][14]" 0
scalar DynamicExhaustivePollingSystem.monitor "Probability C1_1_0_n1_n2[2][15]" 0
scalar DynamicExhaustivePollingSystem.monitor "Probability C1_1_0_n1_n2[2][16]" 0
scalar DynamicExhaustivePollingSystem.monitor "Probability C1_1_0_n1_n2[2][17]" 0
scalar DynamicExhaustivePollingSystem.monitor "Probability C1_1_0_n1_n2[2][18]" 0
scalar DynamicExhaustivePollingSystem.monitor "Probability C1_1_0_n1_n2[2][19]" 0
scalar DynamicExhaustivePollingSystem.monitor "Probability C1_1_0_n1_n2[3][0]" 0.017622058320497
scalar DynamicExhaustivePollingSystem.monitor "Probability C1_1_0_n1_n2[3][1]" 0.00045898649216207
scalar DynamicExhaustivePollingSystem.monitor "Probability C1_1_0_n1_n2[3][2]" 1.6075883181965e-05
scalar DynamicExhaustivePollingSystem.monitor "Probability C1_1_0_n1_n2[3][3]" 0
scalar DynamicExhaustivePollingSystem.monitor "Probability C1_1_0_n1_n2[3][4]" 0
scalar DynamicExhaustivePollingSystem.monitor "Probability C1_1_0_n1_n2[3][5]" 0
scalar DynamicExhaustivePollingSystem.monitor "Probability C1_1_0_n1_n2[3][6]" 0
scalar DynamicExhaustivePollingSystem.monitor "Probability C1_1_0_n1_n2[3][7]" 0
scalar DynamicExhaustivePollingSystem.monitor "Probability C1_1_0_n1_n2[3][8]" 0
scalar DynamicExhaustivePollingSystem.monitor "Probability C1_1_0_n1_n2[3][9]" 0
scalar DynamicExhaustivePollingSystem.monitor "Probability C1_1_0_n1_n2[3][10]" 0
scalar DynamicExhaustivePollingSystem.monitor "Probability C1_1_0_n1_n2[3][11]" 0
scalar DynamicExhaustivePollingSystem.monitor "Probability C1_1_0_n1_n2[3][12]" 0
scalar DynamicExhaustivePollingSystem.monitor "Probability C1_1_0_n1_n2[3][13]" 0
scalar DynamicExhaustivePollingSystem.monitor "Probability C1_1_0_n1_n2[3][14]" 0
scalar DynamicExhaustivePollingSystem.monitor "Probability C1_1_0_n1_n2[3][15]" 0
scalar DynamicExhaustivePollingSystem.monitor "Probability C1_1_0_n1_n2[3][16]" 0
scalar DynamicExhaustivePollingSystem.monitor "Probability C1_1_0_n1_n2[3][17]" 0
scalar DynamicExhaustivePollingSystem.monitor "Probability C1_1_0_n1_n2[3][18]" 0
scalar DynamicExhaustivePollingSystem.monitor "Probability C1_1_0_n1_n2[3][19]" 0
scalar DynamicExhaustivePollingSystem.monitor "Probability C1_1_0_n1_n2[4][0]" 0.0058288521837162
scalar DynamicExhaustivePollingSystem.monitor "Probability C1_1_0_n1_n2[4][1]" 0.00015070556583974
scalar DynamicExhaustivePollingSystem.monitor "Probability C1_1_0_n1_n2[4][2]" 1.3226979500022e-05
scalar DynamicExhaustivePollingSystem.monitor "Probability C1_1_0_n1_n2[4][3]" 0
scalar DynamicExhaustivePollingSystem.monitor "Probability C1_1_0_n1_n2[4][4]" 0
scalar DynamicExhaustivePollingSystem.monitor "Probability C1_1_0_n1_n2[4][5]" 0
scalar DynamicExhaustivePollingSystem.monitor "Probability C1_1_0_n1_n2[4][6]" 0
scalar DynamicExhaustivePollingSystem.monitor "Probability C1_1_0_n1_n2[4][7]" 0
scalar DynamicExhaustivePollingSystem.monitor "Probability C1_1_0_n1_n2[4][8]" 0
scalar DynamicExhaustivePollingSystem.monitor "Probability C1_1_0_n1_n2[4][9]" 0
scalar DynamicExhaustivePollingSystem.monitor "Probability C1_1_0_n1_n2[4][10]" 0
scalar DynamicExhaustivePollingSystem.monitor "Probability C1_1_0_n1_n2[4][11]" 0
scalar DynamicExhaustivePollingSystem.monitor "Probability C1_1_0_n1_n2[4][12]" 0
scalar DynamicExhaustivePollingSystem.monitor "Probability C1_1_0_n1_n2[4][13]" 0
scalar DynamicExhaustivePollingSystem.monitor "Probability C1_1_0_n1_n2[4][14]" 0
scalar DynamicExhaustivePollingSystem.monitor "Probability C1_1_0_n1_n2[4][15]" 0
scalar DynamicExhaustivePollingSystem.monitor "Probability C1_1_0_n1_n2[4][16]" 0
scalar DynamicExhaustivePollingSystem.monitor "Probability C1_1_0_n1_n2[4][17]" 0
scalar DynamicExhaustivePollingSystem.monitor "Probability C1_1_0_n1_n2[4][18]" 0
scalar DynamicExhaustivePollingSystem.monitor "Probability C1_1_0_n1_n2[4][19]" 0
scalar DynamicExhaustivePollingSystem.monitor "Probability C1_1_0_n1_n2[5][0]" 0.0023941184430189
scalar DynamicExhaustivePollingSystem.monitor "Probability C1_1_0_n1_n2[5][1]" 4.8687410870099e-05
scalar DynamicExhaustivePollingSystem.monitor "Probability C1_1_0_n1_n2[5][2]" 0
scalar DynamicExhaustivePollingSystem.monitor "Probability C1_1_0_n1_n2[5][3]" 0
scalar DynamicExhaustivePollingSystem.monitor "Probability C1_1_0_n1_n2[5][4]" 0
scalar DynamicExhaustivePollingSystem.monitor "Probability C1_1_0_n1_n2[5][5]" 0
scalar DynamicExhaustivePollingSystem.monitor "Probability C1_1_0_n1_n2[5][6]" 0
scalar DynamicExhaustivePollingSystem.monitor "Probability C1_1_0_n1_n2[5][7]" 0
scalar DynamicExhaustivePollingSystem.monitor "Probability C1_1_0_n1_n2[5][8]" 0
scalar DynamicExhaustivePollingSystem.monitor "Probability C1_1_0_n1_n2[5][9]" 0
scalar DynamicExhaustivePollingSystem.monitor "Probability C1_1_0_n1_n2[5][10]" 0
scalar DynamicExhaustivePollingSystem.monitor "Probability C1_1_0_n1_n2[5][11]" 0
scalar DynamicExhaustivePollingSystem.monitor "Probability C1_1_0_n1_n2[5][12]" 0
scalar DynamicExhaustivePollingSystem.monitor "Probability C1_1_0_n1_n2[5][13]" 0
scalar DynamicExhaustivePollingSystem.monitor "Probability C1_1_0_n1_n2[5][14]" 0
scalar DynamicExhaustivePollingSystem.monitor "Probability C1_1_0_n1_n2[5][15]" 0
scalar DynamicExhaustivePollingSystem.monitor "Probability C1_1_0_n1_n2[5][16]" 0
scalar DynamicExhaustivePollingSystem.monitor "Probability C1_1_0_n1_n2[5][17]" 0
scalar DynamicExhaustivePollingSystem.monitor "Probability C1_1_0_n1_n2[5][18]" 0
scalar DynamicExhaustivePollingSystem.monitor "Probability C1_1_0_n1_n2[5][19]" 0
scalar DynamicExhaustivePollingSystem.monitor "Probability C1_1_0_n1_n2[6][0]" 0.00092807942529922
scalar DynamicExhaustivePollingSystem.monitor "Probability C1_1_0_n1_n2[6][1]" 2.1129442328601e-05
scalar DynamicExhaustivePollingSystem.monitor "Probability C1_1_0_n1_n2[6][2]" 4.8130115763087e-06
scalar DynamicExhaustivePollingSystem.monitor "Probability C1_1_0_n1_n2[6][3]" 0
scalar DynamicExhaustivePollingSystem.monitor "Probability C1_1_0_n1_n2[6][4]" 0
scalar DynamicExhaustivePollingSystem.monitor "Probability C1_1_0_n1_n2[6][5]" 0
scalar DynamicExhaustivePollingSystem.monitor "Probability C1_1_0_n1_n2[6][6]" 0
scalar DynamicExhaustivePollingSystem.monitor "Probability C1_1_0_n1_n2[6][7]" 0
scalar DynamicExhaustivePollingSystem.monitor "Probability C1_1_0_n1_n2[6][8]" 0
scalar DynamicExhaustivePollingSystem.monitor "Probability C1_1_0_n1_n2[6][9]" 0
scalar DynamicExhaustivePollingSystem.monitor "Probability C1_1_0_n1_n2[6][10]" 0
scalar DynamicExhaustivePollingSystem.monitor "Probability C1_1_0_n1_n2[6][11]" 0
scalar DynamicExhaustivePollingSystem.monitor "Probability C1_1_0_n1_n2[6][12]" 0
scalar DynamicExhaustivePollingSystem.monitor "Probability C1_1_0_n1_n2[6][13]" 0
scalar DynamicExhaustivePollingSystem.monitor "Probability C1_1_0_n1_n2[6][14]" 0
scalar DynamicExhaustivePollingSystem.monitor "Probability C1_1_0_n1_n2[6][15]" 0
scalar DynamicExhaustivePollingSystem.monitor "Probability C1_1_0_n1_n2[6][16]" 0
scalar DynamicExhaustivePollingSystem.monitor "Probability C1_1_0_n1_n2[6][17]" 0
scalar DynamicExhaustivePollingSystem.monitor "Probability C1_1_0_n1_n2[6][18]" 0
scalar DynamicExhaustivePollingSystem.monitor "Probability C1_1_0_n1_n2[6][19]" 0
scalar DynamicExhaustivePollingSystem.monitor "Probability C1_1_0_n1_n2[7][0]" 0.00037744061771128
scalar DynamicExhaustivePollingSystem.monitor "Probability C1_1_0_n1_n2[7][1]" 1.2246618358738e-06
scalar DynamicExhaustivePollingSystem.monitor "Probability C1_1_0_n1_n2[7][2]" 4.1936678900698e-06
scalar DynamicExhaustivePollingSystem.monitor "Probability C1_1_0_n1_n2[7][3]" 0
scalar DynamicExhaustivePollingSystem.monitor "Probability C1_1_0_n1_n2[7][4]" 0
scalar DynamicExhaustivePollingSystem.monitor "Probability C1_1_0_n1_n2[7][5]" 0
scalar DynamicExhaustivePollingSystem.monitor "Probability C1_1_0_n1_n2[7][6]" 0
scalar DynamicExhaustivePollingSystem.monitor "Probability C1_1_0_n1_n2[7][7]" 0
scalar DynamicExhaustivePollingSystem.monitor "Probability C1_1_0_n1_n2[7][8]" 0
scalar DynamicExhaustivePollingSystem.monitor "Probability C1_1_0_n1_n2[7][9]" 0
scalar DynamicExhaustivePollingSystem.monitor "Probability C1_1_0_n1_n2[7][10]" 0
scalar DynamicExhaustivePollingSystem.monitor "Probability C1_1_0_n1_n2[7][11]" 0
scalar DynamicExhaustivePollingSystem.monitor "Probability C1_1_0_n1_n2[7][12]" 0
scalar DynamicExhaustivePollingSystem.monitor "Probability C1_1_0_n1_n2[7][13]" 0
scalar DynamicExhaustivePollingSystem.monitor "Probability C1_1_0_n1_n2[7][14]" 0
scalar DynamicExhaustivePollingSystem.monitor "Probability C1_1_0_n1_n2[7][15]" 0
scalar DynamicExhaustivePollingSystem.monitor "Probability C1_1_0_n1_n2[7][16]" 0
scalar DynamicExhaustivePollingSystem.monitor "Probability C1_1_0_n1_n2[7][17]" 0
scalar DynamicExhaustivePollingSystem.monitor "Probability C1_1_0_n1_n2[7][18]" 0
scalar DynamicExhaustivePollingSystem.monitor "Probability C1_1_0_n1_n2[7][19]" 0
scalar DynamicExhaustivePollingSystem.monitor "Probability C1_1_0_n1_n2[8][0]" 0.00018591291489309
scalar DynamicExhaustivePollingSystem.monitor "Probability C1_1_0_n1_n2[8][1]" 5.07202611753e-06
scalar DynamicExhaustivePollingSystem.monitor "Probability C1_1_0_n1_n2[8][2]" 0
scalar DynamicExhaustivePollingSystem.monitor "Probability C1_1_0_n1_n2[8][3]" 0
scalar DynamicExhaustivePollingSystem.monitor "Probability C1_1_0_n1_n2[8][4]" 0
scalar DynamicExhaustivePollingSystem.monitor "Probability C1_1_0_n1_n2[8][5]" 0
scalar DynamicExhaustivePollingSystem.monitor "Probability C1_1_0_n1_n2[8][6]" 0
scalar DynamicExhaustivePollingSystem.monitor "Probability C1_1_0_n1_n2[8][7]" 0
scalar DynamicExhaustivePollingSystem.monitor "Probability C1_1_0_n1_n2[8][8]" 0
scalar DynamicExhaustivePollingSystem.monitor "Probability C1_1_0_n1_n2[8][9]" 0
scalar DynamicExhaustivePollingSystem.monitor "Probability C1_1_0_n1_n2[8][10]" 0
scalar DynamicExhaustivePollingSystem.monitor "Probability C1_1_0_n1_n2[8][11]" 0
scalar DynamicExhaustivePollingSystem.monitor "Probability C1_1_0_n1_n2[8][12]" 0
scalar DynamicExhaustivePollingSystem.monitor "Probability C1_1_0_n1_n2[8][13]" 0
scalar DynamicExhaustivePollingSystem.monitor "Probability C1_1_0_n1_n2[8][14]" 0
scalar DynamicExhaustivePollingSystem.monitor "Probability C1_1_0_n1_n2[8][15]" 0
scalar DynamicExhaustivePollingSystem.monitor "Probability C1_1_0_n1_n2[8][16]" 0
scalar DynamicExhaustivePollingSystem.monitor "Probability C1_1_0_n1_n2[8][17]" 0
scalar DynamicExhaustivePollingSystem.monitor "Probability C1_1_0_n1_n2[8][18]" 0
scalar DynamicExhaustivePollingSystem.monitor "Probability C1_1_0_n1_n2[8][19]" 0
scalar DynamicExhaustivePollingSystem.monitor "Probability C1_1_0_n1_n2[9][0]" 8.8584158677347e-05
scalar DynamicExhaustivePollingSystem.monitor "Probability C1_1_0_n1_n2[9][1]" 4.1785026069571e-06
scalar DynamicExhaustivePollingSystem.monitor "Probability C1_1_0_n1_n2[9][2]" 0
scalar DynamicExhaustivePollingSystem.monitor "Probability C1_1_0_n1_n2[9][3]" 0
scalar DynamicExhaustivePollingSystem.monitor "Probability C1_1_0_n1_n2[9][4]" 0
scalar DynamicExhaustivePollingSystem.monitor "Probability C1_1_0_n1_n2[9][5]" 0
scalar DynamicExhaustivePollingSystem.monitor "Probability C1_1_0_n1_n2[9][6]" 0
scalar DynamicExhaustivePollingSystem.monitor "Probability C1_1_0_n1_n2[9][7]" 0
scalar DynamicExhaustivePollingSystem.monitor "Probability C1_1_0_n1_n2[9][8]" 0
scalar DynamicExhaustivePollingSystem.monitor "Probability C1_1_0_n1_n2[9][9]" 0
scalar DynamicExhaustivePollingSystem.monitor "Probability C1_1_0_n1_n2[9][10]" 0
scalar DynamicExhaustivePollingSystem.monitor "Probability C1_1_0_n1_n2[9][11]" 0
scalar DynamicExhaustivePollingSystem.monitor "Probability C1_1_0_n1_n2[9][12]" 0
scalar DynamicExhaustivePollingSystem.monitor "Probability C1_1_0_n1_n2[9][13]" 0
scalar DynamicExhaustivePollingSystem.monitor "Probability C1_1_0_n1_n2[9][14]" 0
scalar DynamicExhaustivePollingSystem.monitor "Probability C1_1_0_n1_n2[9][15]" 0
scalar DynamicExhaustivePollingSystem.monitor "Probability C1_1_0_n1_n2[9][16]" 0
scalar DynamicExhaustivePollingSystem.monitor "Probability C1_1_0_n1_n2[9][17]" 0
scalar DynamicExhaustivePollingSystem.monitor "Probability C1_1_0_n1_n2[9][18]" 0
scalar DynamicExhaustivePollingSystem.monitor "Probability C1_1_0_n1_n2[9][19]" 0
scalar DynamicExhaustivePollingSystem.monitor "Probability C1_1_0_n1_n2[10][0]" 2.6439044004582e-05
scalar DynamicExhaustivePollingSystem.monitor "Probability C1_1_0_n1_n2[10][1]" 1.3192736983492e-07
scalar DynamicExhaustivePollingSystem.monitor "Probability C1_1_0_n1_n2[10][2]" 0
scalar DynamicExhaustivePollingSystem.monitor "Probability C1_1_0_n1_n2[10][3]" 0
scalar DynamicExhaustivePollingSystem.monitor "Probability C1_1_0_n1_n2[10][4]" 0
scalar DynamicExhaustivePollingSystem.monitor "Probability C1_1_0_n1_n2[10][5]" 0
scalar DynamicExhaustivePollingSystem.monitor "Probability C1_1_0_n1_n2[10][6]" 0
scalar DynamicExhaustivePollingSystem.monitor "Probability C1_1_0_n1_n2[10][7]" 0
scalar DynamicExhaustivePollingSystem.monitor "Probability C1_1_0_n1_n2[10][8]" 0
scalar DynamicExhaustivePollingSystem.monitor "Probability C1_1_0_n1_n2[10][9]" 0
scalar DynamicExhaustivePollingSystem.monitor "Probability C1_1_0_n1_n2[10][10]" 0
scalar DynamicExhaustivePollingSystem.monitor "Probability C1_1_0_n1_n2[10][11]" 0
scalar DynamicExhaustivePollingSystem.monitor "Probability C1_1_0_n1_n2[10][12]" 0
scalar DynamicExhaustivePollingSystem.monitor "Probability C1_1_0_n1_n2[10][13]" 0
scalar DynamicExhaustivePollingSystem.monitor "Probability C1_1_0_n1_n2[10][14]" 0
scalar DynamicExhaustivePollingSystem.monitor "Probability C1_1_0_n1_n2[10][15]" 0
scalar DynamicExhaustivePollingSystem.monitor "Probability C1_1_0_n1_n2[10][16]" 0
scalar DynamicExhaustivePollingSystem.monitor "Probability C1_1_0_n1_n2[10][17]" 0
scalar DynamicExhaustivePollingSystem.monitor "Probability C1_1_0_n1_n2[10][18]" 0
scalar DynamicExhaustivePollingSystem.monitor "Probability C1_1_0_n1_n2[10][19]" 0
scalar DynamicExhaustivePollingSystem.monitor "Probability C1_1_0_n1_n2[11][0]" 1.5674862195714e-05
scalar DynamicExhaustivePollingSystem.monitor "Probability C1_1_0_n1_n2[11][1]" 0
scalar DynamicExhaustivePollingSystem.monitor "Probability C1_1_0_n1_n2[11][2]" 0
scalar DynamicExhaustivePollingSystem.monitor "Probability C1_1_0_n1_n2[11][3]" 0
scalar DynamicExhaustivePollingSystem.monitor "Probability C1_1_0_n1_n2[11][4]" 0
scalar DynamicExhaustivePollingSystem.monitor "Probability C1_1_0_n1_n2[11][5]" 0
scalar DynamicExhaustivePollingSystem.monitor "Probability C1_1_0_n1_n2[11][6]" 0
scalar DynamicExhaustivePollingSystem.monitor "Probability C1_1_0_n1_n2[11][7]" 0
scalar DynamicExhaustivePollingSystem.monitor "Probability C1_1_0_n1_n2[11][8]" 0
scalar DynamicExhaustivePollingSystem.monitor "Probability C1_1_0_n1_n2[11][9]" 0
scalar DynamicExhaustivePollingSystem.monitor "Probability C1_1_0_n1_n2[11][10]" 0
scalar DynamicExhaustivePollingSystem.monitor "Probability C1_1_0_n1_n2[11][11]" 0
scalar DynamicExhaustivePollingSystem.monitor "Probability C1_1_0_n1_n2[11][12]" 0
scalar DynamicExhaustivePollingSystem.monitor "Probability C1_1_0_n1_n2[11][13]" 0
scalar DynamicExhaustivePollingSystem.monitor "Probability C1_1_0_n1_n2[11][14]" 0
scalar DynamicExhaustivePollingSystem.monitor "Probability C1_1_0_n1_n2[11][15]" 0
scalar DynamicExhaustivePollingSystem.monitor "Probability C1_1_0_n1_n2[11][16]" 0
scalar DynamicExhaustivePollingSystem.monitor "Probability C1_1_0_n1_n2[11][17]" 0
scalar DynamicExhaustivePollingSystem.monitor "Probability C1_1_0_n1_n2[11][18]" 0
scalar DynamicExhaustivePollingSystem.monitor "Probability C1_1_0_n1_n2[11][19]" 0
scalar DynamicExhaustivePollingSystem.monitor "Probability C1_1_0_n1_n2[12][0]" 3.2611729434689e-06
scalar DynamicExhaustivePollingSystem.monitor "Probability C1_1_0_n1_n2[12][1]" 0
scalar DynamicExhaustivePollingSystem.monitor "Probability C1_1_0_n1_n2[12][2]" 0
scalar DynamicExhaustivePollingSystem.monitor "Probability C1_1_0_n1_n2[12][3]" 0
scalar DynamicExhaustivePollingSystem.monitor "Probability C1_1_0_n1_n2[12][4]" 0
scalar DynamicExhaustivePollingSystem.monitor "Probability C1_1_0_n1_n2[12][5]" 0
scalar DynamicExhaustivePollingSystem.monitor "Probability C1_1_0_n1_n2[12][6]" 0
scalar DynamicExhaustivePollingSystem.monitor "Probability C1_1_0_n1_n2[12][7]" 0
scalar DynamicExhaustivePollingSystem.monitor "Probability C1_1_0_n1_n2[12][8]" 0
scalar DynamicExhaustivePollingSystem.monitor "Probability C1_1_0_n1_n2[12][9]" 0
scalar DynamicExhaustivePollingSystem.monitor "Probability C1_1_0_n1_n2[12][10]" 0
scalar DynamicExhaustivePollingSystem.monitor "Probability C1_1_0_n1_n2[12][11]" 0
scalar DynamicExhaustivePollingSystem.monitor "Probability C1_1_0_n1_n2[12][12]" 0
scalar DynamicExhaustivePollingSystem.monitor "Probability C1_1_0_n1_n2[12][13]" 0
scalar DynamicExhaustivePollingSystem.monitor "Probability C1_1_0_n1_n2[12][14]" 0
scalar DynamicExhaustivePollingSystem.monitor "Probability C1_1_0_n1_n2[12][15]" 0
scalar DynamicExhaustivePollingSystem.monitor "Probability C1_1_0_n1_n2[12][16]" 0
scalar DynamicExhaustivePollingSystem.monitor "Probability C1_1_0_n1_n2[12][17]" 0
scalar DynamicExhaustivePollingSystem.monitor "Probability C1_1_0_n1_n2[12][18]" 0
scalar DynamicExhaustivePollingSystem.monitor "Probability C1_1_0_n1_n2[12][19]" 0
scalar DynamicExhaustivePollingSystem.monitor "Probability C1_1_0_n1_n2[13][0]" 8.4844478640378e-08
scalar DynamicExhaustivePollingSystem.monitor "Probability C1_1_0_n1_n2[13][1]" 0
scalar DynamicExhaustivePollingSystem.monitor "Probability C1_1_0_n1_n2[13][2]" 0
scalar DynamicExhaustivePollingSystem.monitor "Probability C1_1_0_n1_n2[13][3]" 0
scalar DynamicExhaustivePollingSystem.monitor "Probability C1_1_0_n1_n2[13][4]" 0
scalar DynamicExhaustivePollingSystem.monitor "Probability C1_1_0_n1_n2[13][5]" 0
scalar DynamicExhaustivePollingSystem.monitor "Probability C1_1_0_n1_n2[13][6]" 0
scalar DynamicExhaustivePollingSystem.monitor "Probability C1_1_0_n1_n2[13][7]" 0
scalar DynamicExhaustivePollingSystem.monitor "Probability C1_1_0_n1_n2[13][8]" 0
scalar DynamicExhaustivePollingSystem.monitor "Probability C1_1_0_n1_n2[13][9]" 0
scalar DynamicExhaustivePollingSystem.monitor "Probability C1_1_0_n1_n2[13][10]" 0
scalar DynamicExhaustivePollingSystem.monitor "Probability C1_1_0_n1_n2[13][11]" 0
scalar DynamicExhaustivePollingSystem.monitor "Probability C1_1_0_n1_n2[13][12]" 0
scalar DynamicExhaustivePollingSystem.monitor "Probability C1_1_0_n1_n2[13][13]" 0
scalar DynamicExhaustivePollingSystem.monitor "Probability C1_1_0_n1_n2[13][14]" 0
scalar DynamicExhaustivePollingSystem.monitor "Probability C1_1_0_n1_n2[13][15]" 0
scalar DynamicExhaustivePollingSystem.monitor "Probability C1_1_0_n1_n2[13][16]" 0
scalar DynamicExhaustivePollingSystem.monitor "Probability C1_1_0_n1_n2[13][17]" 0
scalar DynamicExhaustivePollingSystem.monitor "Probability C1_1_0_n1_n2[13][18]" 0
scalar DynamicExhaustivePollingSystem.monitor "Probability C1_1_0_n1_n2[13][19]" 0
scalar DynamicExhaustivePollingSystem.monitor "Probability C1_1_0_n1_n2[14][0]" 0
scalar DynamicExhaustivePollingSystem.monitor "Probability C1_1_0_n1_n2[14][1]" 0
scalar DynamicExhaustivePollingSystem.monitor "Probability C1_1_0_n1_n2[14][2]" 0
scalar DynamicExhaustivePollingSystem.monitor "Probability C1_1_0_n1_n2[14][3]" 0
scalar DynamicExhaustivePollingSystem.monitor "Probability C1_1_0_n1_n2[14][4]" 0
scalar DynamicExhaustivePollingSystem.monitor "Probability C1_1_0_n1_n2[14][5]" 0
scalar DynamicExhaustivePollingSystem.monitor "Probability C1_1_0_n1_n2[14][6]" 0
scalar DynamicExhaustivePollingSystem.monitor "Probability C1_1_0_n1_n2[14][7]" 0
scalar DynamicExhaustivePollingSystem.monitor "Probability C1_1_0_n1_n2[14][8]" 0
scalar DynamicExhaustivePollingSystem.monitor "Probability C1_1_0_n1_n2[14][9]" 0
scalar DynamicExhaustivePollingSystem.monitor "Probability C1_1_0_n1_n2[14][10]" 0
scalar DynamicExhaustivePollingSystem.monitor "Probability C1_1_0_n1_n2[14][11]" 0
scalar DynamicExhaustivePollingSystem.monitor "Probability C1_1_0_n1_n2[14][12]" 0
scalar DynamicExhaustivePollingSystem.monitor "Probability C1_1_0_n1_n2[14][13]" 0
scalar DynamicExhaustivePollingSystem.monitor "Probability C1_1_0_n1_n2[14][14]" 0
scalar DynamicExhaustivePollingSystem.monitor "Probability C1_1_0_n1_n2[14][15]" 0
scalar DynamicExhaustivePollingSystem.monitor "Probability C1_1_0_n1_n2[14][16]" 0
scalar DynamicExhaustivePollingSystem.monitor "Probability C1_1_0_n1_n2[14][17]" 0
scalar DynamicExhaustivePollingSystem.monitor "Probability C1_1_0_n1_n2[14][18]" 0
scalar DynamicExhaustivePollingSystem.monitor "Probability C1_1_0_n1_n2[14][19]" 0
scalar DynamicExhaustivePollingSystem.monitor "Probability C1_1_0_n1_n2[15][0]" 0
scalar DynamicExhaustivePollingSystem.monitor "Probability C1_1_0_n1_n2[15][1]" 0
scalar DynamicExhaustivePollingSystem.monitor "Probability C1_1_0_n1_n2[15][2]" 0
scalar DynamicExhaustivePollingSystem.monitor "Probability C1_1_0_n1_n2[15][3]" 0
scalar DynamicExhaustivePollingSystem.monitor "Probability C1_1_0_n1_n2[15][4]" 0
scalar DynamicExhaustivePollingSystem.monitor "Probability C1_1_0_n1_n2[15][5]" 0
scalar DynamicExhaustivePollingSystem.monitor "Probability C1_1_0_n1_n2[15][6]" 0
scalar DynamicExhaustivePollingSystem.monitor "Probability C1_1_0_n1_n2[15][7]" 0
scalar DynamicExhaustivePollingSystem.monitor "Probability C1_1_0_n1_n2[15][8]" 0
scalar DynamicExhaustivePollingSystem.monitor "Probability C1_1_0_n1_n2[15][9]" 0
scalar DynamicExhaustivePollingSystem.monitor "Probability C1_1_0_n1_n2[15][10]" 0
scalar DynamicExhaustivePollingSystem.monitor "Probability C1_1_0_n1_n2[15][11]" 0
scalar DynamicExhaustivePollingSystem.monitor "Probability C1_1_0_n1_n2[15][12]" 0
scalar DynamicExhaustivePollingSystem.monitor "Probability C1_1_0_n1_n2[15][13]" 0
scalar DynamicExhaustivePollingSystem.monitor "Probability C1_1_0_n1_n2[15][14]" 0
scalar DynamicExhaustivePollingSystem.monitor "Probability C1_1_0_n1_n2[15][15]" 0
scalar DynamicExhaustivePollingSystem.monitor "Probability C1_1_0_n1_n2[15][16]" 0
scalar DynamicExhaustivePollingSystem.monitor "Probability C1_1_0_n1_n2[15][17]" 0
scalar DynamicExhaustivePollingSystem.monitor "Probability C1_1_0_n1_n2[15][18]" 0
scalar DynamicExhaustivePollingSystem.monitor "Probability C1_1_0_n1_n2[15][19]" 0
scalar DynamicExhaustivePollingSystem.monitor "Probability C1_1_0_n1_n2[16][0]" 0
scalar DynamicExhaustivePollingSystem.monitor "Probability C1_1_0_n1_n2[16][1]" 0
scalar DynamicExhaustivePollingSystem.monitor "Probability C1_1_0_n1_n2[16][2]" 0
scalar DynamicExhaustivePollingSystem.monitor "Probability C1_1_0_n1_n2[16][3]" 0
scalar DynamicExhaustivePollingSystem.monitor "Probability C1_1_0_n1_n2[16][4]" 0
scalar DynamicExhaustivePollingSystem.monitor "Probability C1_1_0_n1_n2[16][5]" 0
scalar DynamicExhaustivePollingSystem.monitor "Probability C1_1_0_n1_n2[16][6]" 0
scalar DynamicExhaustivePollingSystem.monitor "Probability C1_1_0_n1_n2[16][7]" 0
scalar DynamicExhaustivePollingSystem.monitor "Probability C1_1_0_n1_n2[16][8]" 0
scalar DynamicExhaustivePollingSystem.monitor "Probability C1_1_0_n1_n2[16][9]" 0
scalar DynamicExhaustivePollingSystem.monitor "Probability C1_1_0_n1_n2[16][10]" 0
scalar DynamicExhaustivePollingSystem.monitor "Probability C1_1_0_n1_n2[16][11]" 0
scalar DynamicExhaustivePollingSystem.monitor "Probability C1_1_0_n1_n2[16][12]" 0
scalar DynamicExhaustivePollingSystem.monitor "Probability C1_1_0_n1_n2[16][13]" 0
scalar DynamicExhaustivePollingSystem.monitor "Probability C1_1_0_n1_n2[16][14]" 0
scalar DynamicExhaustivePollingSystem.monitor "Probability C1_1_0_n1_n2[16][15]" 0
scalar DynamicExhaustivePollingSystem.monitor "Probability C1_1_0_n1_n2[16][16]" 0
scalar DynamicExhaustivePollingSystem.monitor "Probability C1_1_0_n1_n2[16][17]" 0
scalar DynamicExhaustivePollingSystem.monitor "Probability C1_1_0_n1_n2[16][18]" 0
scalar DynamicExhaustivePollingSystem.monitor "Probability C1_1_0_n1_n2[16][19]" 0
scalar DynamicExhaustivePollingSystem.monitor "Probability C1_1_0_n1_n2[17][0]" 0
scalar DynamicExhaustivePollingSystem.monitor "Probability C1_1_0_n1_n2[17][1]" 0
scalar DynamicExhaustivePollingSystem.monitor "Probability C1_1_0_n1_n2[17][2]" 0
scalar DynamicExhaustivePollingSystem.monitor "Probability C1_1_0_n1_n2[17][3]" 0
scalar DynamicExhaustivePollingSystem.monitor "Probability C1_1_0_n1_n2[17][4]" 0
scalar DynamicExhaustivePollingSystem.monitor "Probability C1_1_0_n1_n2[17][5]" 0
scalar DynamicExhaustivePollingSystem.monitor "Probability C1_1_0_n1_n2[17][6]" 0
scalar DynamicExhaustivePollingSystem.monitor "Probability C1_1_0_n1_n2[17][7]" 0
scalar DynamicExhaustivePollingSystem.monitor "Probability C1_1_0_n1_n2[17][8]" 0
scalar DynamicExhaustivePollingSystem.monitor "Probability C1_1_0_n1_n2[17][9]" 0
scalar DynamicExhaustivePollingSystem.monitor "Probability C1_1_0_n1_n2[17][10]" 0
scalar DynamicExhaustivePollingSystem.monitor "Probability C1_1_0_n1_n2[17][11]" 0
scalar DynamicExhaustivePollingSystem.monitor "Probability C1_1_0_n1_n2[17][12]" 0
scalar DynamicExhaustivePollingSystem.monitor "Probability C1_1_0_n1_n2[17][13]" 0
scalar DynamicExhaustivePollingSystem.monitor "Probability C1_1_0_n1_n2[17][14]" 0
scalar DynamicExhaustivePollingSystem.monitor "Probability C1_1_0_n1_n2[17][15]" 0
scalar DynamicExhaustivePollingSystem.monitor "Probability C1_1_0_n1_n2[17][16]" 0
scalar DynamicExhaustivePollingSystem.monitor "Probability C1_1_0_n1_n2[17][17]" 0
scalar DynamicExhaustivePollingSystem.monitor "Probability C1_1_0_n1_n2[17][18]" 0
scalar DynamicExhaustivePollingSystem.monitor "Probability C1_1_0_n1_n2[17][19]" 0
scalar DynamicExhaustivePollingSystem.monitor "Probability C1_1_0_n1_n2[18][0]" 0
scalar DynamicExhaustivePollingSystem.monitor "Probability C1_1_0_n1_n2[18][1]" 0
scalar DynamicExhaustivePollingSystem.monitor "Probability C1_1_0_n1_n2[18][2]" 0
scalar DynamicExhaustivePollingSystem.monitor "Probability C1_1_0_n1_n2[18][3]" 0
scalar DynamicExhaustivePollingSystem.monitor "Probability C1_1_0_n1_n2[18][4]" 0
scalar DynamicExhaustivePollingSystem.monitor "Probability C1_1_0_n1_n2[18][5]" 0
scalar DynamicExhaustivePollingSystem.monitor "Probability C1_1_0_n1_n2[18][6]" 0
scalar DynamicExhaustivePollingSystem.monitor "Probability C1_1_0_n1_n2[18][7]" 0
scalar DynamicExhaustivePollingSystem.monitor "Probability C1_1_0_n1_n2[18][8]" 0
scalar DynamicExhaustivePollingSystem.monitor "Probability C1_1_0_n1_n2[18][9]" 0
scalar DynamicExhaustivePollingSystem.monitor "Probability C1_1_0_n1_n2[18][10]" 0
scalar DynamicExhaustivePollingSystem.monitor "Probability C1_1_0_n1_n2[18][11]" 0
scalar DynamicExhaustivePollingSystem.monitor "Probability C1_1_0_n1_n2[18][12]" 0
scalar DynamicExhaustivePollingSystem.monitor "Probability C1_1_0_n1_n2[18][13]" 0
scalar DynamicExhaustivePollingSystem.monitor "Probability C1_1_0_n1_n2[18][14]" 0
scalar DynamicExhaustivePollingSystem.monitor "Probability C1_1_0_n1_n2[18][15]" 0
scalar DynamicExhaustivePollingSystem.monitor "Probability C1_1_0_n1_n2[18][16]" 0
scalar DynamicExhaustivePollingSystem.monitor "Probability C1_1_0_n1_n2[18][17]" 0
scalar DynamicExhaustivePollingSystem.monitor "Probability C1_1_0_n1_n2[18][18]" 0
scalar DynamicExhaustivePollingSystem.monitor "Probability C1_1_0_n1_n2[18][19]" 0
scalar DynamicExhaustivePollingSystem.monitor "Probability C1_1_0_n1_n2[19][0]" 7.4902815298328e-07
scalar DynamicExhaustivePollingSystem.monitor "Probability C1_1_0_n1_n2[19][1]" 0
scalar DynamicExhaustivePollingSystem.monitor "Probability C1_1_0_n1_n2[19][2]" 0
scalar DynamicExhaustivePollingSystem.monitor "Probability C1_1_0_n1_n2[19][3]" 0
scalar DynamicExhaustivePollingSystem.monitor "Probability C1_1_0_n1_n2[19][4]" 0
scalar DynamicExhaustivePollingSystem.monitor "Probability C1_1_0_n1_n2[19][5]" 0
scalar DynamicExhaustivePollingSystem.monitor "Probability C1_1_0_n1_n2[19][6]" 0
scalar DynamicExhaustivePollingSystem.monitor "Probability C1_1_0_n1_n2[19][7]" 0
scalar DynamicExhaustivePollingSystem.monitor "Probability C1_1_0_n1_n2[19][8]" 0
scalar DynamicExhaustivePollingSystem.monitor "Probability C1_1_0_n1_n2[19][9]" 0
scalar DynamicExhaustivePollingSystem.monitor "Probability C1_1_0_n1_n2[19][10]" 0
scalar DynamicExhaustivePollingSystem.monitor "Probability C1_1_0_n1_n2[19][11]" 0
scalar DynamicExhaustivePollingSystem.monitor "Probability C1_1_0_n1_n2[19][12]" 0
scalar DynamicExhaustivePollingSystem.monitor "Probability C1_1_0_n1_n2[19][13]" 0
scalar DynamicExhaustivePollingSystem.monitor "Probability C1_1_0_n1_n2[19][14]" 0
scalar DynamicExhaustivePollingSystem.monitor "Probability C1_1_0_n1_n2[19][15]" 0
scalar DynamicExhaustivePollingSystem.monitor "Probability C1_1_0_n1_n2[19][16]" 0
scalar DynamicExhaustivePollingSystem.monitor "Probability C1_1_0_n1_n2[19][17]" 0
scalar DynamicExhaustivePollingSystem.monitor "Probability C1_1_0_n1_n2[19][18]" 0
scalar DynamicExhaustivePollingSystem.monitor "Probability C1_1_0_n1_n2[19][19]" 0
scalar DynamicExhaustivePollingSystem.monitor "Probability C2_1_1_n1_n2[0][0]" 11.59739055229
scalar DynamicExhaustivePollingSystem.monitor "Probability C2_1_1_n1_n2[0][1]" 0.58379420073966
scalar DynamicExhaustivePollingSystem.monitor "Probability C2_1_1_n1_n2[0][2]" 0.058149255995128
scalar DynamicExhaustivePollingSystem.monitor "Probability C2_1_1_n1_n2[0][3]" 0.014227685986316
scalar DynamicExhaustivePollingSystem.monitor "Probability C2_1_1_n1_n2[0][4]" 0.0049433273940971
scalar DynamicExhaustivePollingSystem.monitor "Probability C2_1_1_n1_n2[0][5]" 0.0019006162270068
scalar DynamicExhaustivePollingSystem.monitor "Probability C2_1_1_n1_n2[0][6]" 0.00074250334004031
scalar DynamicExhaustivePollingSystem.monitor "Probability C2_1_1_n1_n2[0][7]" 0.00029428138449052
scalar DynamicExhaustivePollingSystem.monitor "Probability C2_1_1_n1_n2[0][8]" 0.00011750514839381
scalar DynamicExhaustivePollingSystem.monitor "Probability C2_1_1_n1_n2[0][9]" 7.4061520977896e-05
scalar DynamicExhaustivePollingSystem.monitor "Probability C2_1_1_n1_n2[0][10]" 2.5087709980923e-05
scalar DynamicExhaustivePollingSystem.monitor "Probability C2_1_1_n1_n2[0][11]" 1.2678145818611e-05
scalar DynamicExhaustivePollingSystem.monitor "Probability C2_1_1_n1_n2[0][12]" 3.5102800073368e-06
scalar DynamicExhaustivePollingSystem.monitor "Probability C2_1_1_n1_n2[0][13]" 2.060659173235e-06
scalar DynamicExhaustivePollingSystem.monitor "Probability C2_1_1_n1_n2[0][14]" 0
scalar DynamicExhaustivePollingSystem.monitor "Probability C2_1_1_n1_n2[0][15]" 1.0534313347261e-06
scalar DynamicExhaustivePollingSystem.monitor "Probability C2_1_1_n1_n2[0][16]" 0
scalar DynamicExhaustivePollingSystem.monitor "Probability C2_1_1_n1_n2[0][17]" 0
scalar DynamicExhaustivePollingSystem.monitor "Probability C2_1_1_n1_n2[0][18]" 0
scalar DynamicExhaustivePollingSystem.monitor "Probability C2_1_1_n1_n2[0][19]" 0
scalar DynamicExhaustivePollingSystem.monitor "Probability C2_1_1_n1_n2[1][0]" 0.46900501873408
scalar DynamicExhaustivePollingSystem.monitor "Probability C2_1_1_n1_n2[1][1]" 0.025462331887636
scalar DynamicExhaustivePollingSystem.monitor "Probability C2_1_1_n1_n2[1][2]" 0.0022162019270128
scalar DynamicExhaustivePollingSystem.monitor "Probability C2_1_1_n1_n2[1][3]" 0.00050921910554014
scalar DynamicExhaustivePollingSystem.monitor "Probability C2_1_1_n1_n2[1][4]" 0.00016652468249395
scalar DynamicExhaustivePollingSystem.monitor "Probability C2_1_1_n1_n2[1][5]" 5.9832985441327e-05
scalar DynamicExhaustivePollingSystem.monitor "Probability C2_1_1_n1_n2[1][6]" 1.889895726986e-05
scalar DynamicExhaustivePollingSystem.monitor "Probability C2_1_1_n1_n2[1][7]" 1.0671721538131e-05
scalar DynamicExhaustivePollingSystem.monitor "Probability C2_1_1_n1_n2[1][8]" 8.3812435539713e-06
scalar DynamicExhaustivePollingSystem.monitor "Probability C2_1_1_n1_n2[1][9]" 0
scalar DynamicExhaustivePollingSystem.monitor "Probability C2_1_1_n1_n2[1][10]" 0
scalar DynamicExhaustivePollingSystem.monitor "Probability C2_1_1_n1_n2[1][11]" 3.3868943859183e-06
scalar DynamicExhaustivePollingSystem.monitor "Probability C2_1_1_n1_n2[1][12]" 0
scalar DynamicExhaustivePollingSystem.monitor "Probability C2_1_1_n1_n2[1][13]" 0
scalar DynamicExhaustivePollingSystem.monitor "Probability C2_1_1_n1_n2[1][14]" 0
scalar DynamicExhaustivePollingSystem.monitor "Probability C2_1_1_n1_n2[1][15]" 0
scalar DynamicExhaustivePollingSystem.monitor "Probability C2_1_1_n1_n2[1][16]" 0
scalar DynamicExhaustivePollingSystem.monitor "Probability C2_1_1_n1_n2[1][17]" 0
scalar DynamicExhaustivePollingSystem.monitor "Probability C2_1_1_n1_n2[1][18]" 0
scalar DynamicExhaustivePollingSystem.monitor "Probability C2_1_1_n1_n2[1][19]" 0
scalar DynamicExhaustivePollingSystem.monitor "Probability C2_1_1_n1_n2[2][0]" 0.056346767236729
scalar DynamicExhaustivePollingSystem.monitor "Probability C2_1_1_n1_n2[2][1]" 0.0019443110408066
scalar DynamicExhaustivePollingSystem.monitor "Probability C2_1_1_n1_n2[2][2]" 8.09983147461e-05
scalar DynamicExhaustivePollingSystem.monitor "Probability C2_1_1_n1_n2[2][3]" 1.8513870584287e-05
scalar DynamicExhaustivePollingSystem.monitor "Probability C2_1_1_n1_n2[2][4]" 5.6776320545371e-06
scalar DynamicExhaustivePollingSystem.monitor "Probability C2_1_1_n1_n2[2][5]" 3.5834175173289e-06
scalar DynamicExhaustivePollingSystem.monitor "Probability C2_1_1_n1_n2[2][6]" 0
scalar DynamicExhaustivePollingSystem.monitor "Probability C2_1_1_n1_n2[2][7]" 0
scalar DynamicExhaustivePollingSystem.monitor "Probability C2_1_1_n1_n2[2][8]" 0
scalar DynamicExhaustivePollingSystem.monitor "Probability C2_1_1_n1_n2[2][9]" 0
scalar DynamicExhaustivePollingSystem.monitor "Probability C2_1_1_n1_n2[2][10]" 0
scalar DynamicExhaustivePollingSystem.monitor "Probability C2_1_1_n1_n2[2][11]" 0
scalar DynamicExhaustivePollingSystem.monitor "Probability C2_1_1_n1_n2[2][12]" 0
scalar DynamicExhaustivePollingSystem.monitor "Probability C2_1_1_n1_n2[2][13]" 0
scalar DynamicExhaustivePollingSystem.monitor "Probability C2_1_1_n1_n2[2][14]" 0
scalar DynamicExhaustivePollingSystem.monitor "Probability C2_1_1_n1_n2[2][15]" 0
scalar DynamicExhaustivePollingSystem.monitor "Probability C2_1_1_n1_n2[2][16]" 0
scalar DynamicExhaustivePollingSystem.monitor "Probability C2_1_1_n1_n2[2][17]" 0
scalar DynamicExhaustivePollingSystem.monitor "Probability C2_1_1_n1_n2[2][18]" 0
scalar DynamicExhaustivePollingSystem.monitor "Probability C2_1_1_n1_n2[2][19]" 0
scalar DynamicExhaustivePollingSystem.monitor "Probability C2_1_1_n1_n2[3][0]" 0.016126606107942
scalar DynamicExhaustivePollingSystem.monitor "Probability C2_1_1_n1_n2[3][1]" 0.0003461464687612
scalar DynamicExhaustivePollingSystem.monitor "Probability C2_1_1_n1_n2[3][2]" 1.2246569500618e-05
scalar DynamicExhaustivePollingSystem.monitor "Probability C2_1_1_n1_n2[3][3]" 1.7804973086088e-07
scalar DynamicExhaustivePollingSystem.monitor "Probability C2_1_1_n1_n2[3][4]" 0
scalar DynamicExhaustivePollingSystem.monitor "Probability C2_1_1_n1_n2[3][5]" 0
scalar DynamicExhaustivePollingSystem.monitor "Probability C2_1_1_n1_n2[3][6]" 0
scalar DynamicExhaustivePollingSystem.monitor "Probability C2_1_1_n1_n2[3][7]" 0
scalar DynamicExhaustivePollingSystem.monitor "Probability C2_1_1_n1_n2[3][8]" 0
scalar DynamicExhaustivePollingSystem.monitor "Probability C2_1_1_n1_n2[3][9]" 0
scalar DynamicExhaustivePollingSystem.monitor "Probability C2_1_1_n1_n2[3][10]" 0
scalar DynamicExhaustivePollingSystem.monitor "Probability C2_1_1_n1_n2[3][11]" 0
scalar DynamicExhaustivePollingSystem.monitor "Probability C2_1_1_n1_n2[3][12]" 0
scalar DynamicExhaustivePollingSystem.monitor "Probability C2_1_1_n1_n2[3][13]" 0
scalar DynamicExhaustivePollingSystem.monitor "Probability C2_1_1_n1_n2[3][14]" 0
scalar DynamicExhaustivePollingSystem.monitor "Probability C2_1_1_n1_n2[3][15]" 0
scalar DynamicExhaustivePollingSystem.monitor "Probability C2_1_1_n1_n2[3][16]" 0
scalar DynamicExhaustivePollingSystem.monitor "Probability C2_1_1_n1_n2[3][17]" 0
scalar DynamicExhaustivePollingSystem.monitor "Probability C2_1_1_n1_n2[3][18]" 0
scalar DynamicExhaustivePollingSystem.monitor "Probability C2_1_1_n1_n2[3][19]" 0
scalar DynamicExhaustivePollingSystem.monitor "Probability C2_1_1_n1_n2[4][0]" 0.0056006790426481
scalar DynamicExhaustivePollingSystem.monitor "Probability C2_1_1_n1_n2[4][1]" 0.0001288800008279
scalar DynamicExhaustivePollingSystem.monitor "Probability C2_1_1_n1_n2[4][2]" 9.4975805126646e-06
scalar DynamicExhaustivePollingSystem.monitor "Probability C2_1_1_n1_n2[4][3]" 5.599876098227e-06
scalar DynamicExhaustivePollingSystem.monitor "Probability C2_1_1_n1_n2[4][4]" 0
scalar DynamicExhaustivePollingSystem.monitor "Probability C2_1_1_n1_n2[4][5]" 0
[...]
scalar DynamicExhaustivePollingSystem.monitor "Probability I_n1_n2[7][4]" 0
scalar DynamicExhaustivePollingSystem.monitor "Probability I_n1_n2[7][5]" 0
scalar DynamicExhaustivePollingSystem.monitor "Probability I_n1_n2[7][6]" 0
scalar DynamicExhaustivePollingSystem.monitor "Probability I_n1_n2[7][7]" 0
scalar DynamicExhaustivePollingSystem.monitor "Probability I_n1_n2[7][8]" 0
scalar DynamicExhaustivePollingSystem.monitor "Probability I_n1_n2[7][9]" 0
scalar DynamicExhaustivePollingSystem.monitor "Probability I_n1_n2[7][10]" 0
scalar DynamicExhaustivePollingSystem.monitor "Probability I_n1_n2[7][11]" 0
scalar DynamicExhaustivePollingSystem.monitor "Probability I_n1_n2[7][12]" 0
scalar DynamicExhaustivePollingSystem.monitor "Probability I_n1_n2[7][13]" 0
scalar DynamicExhaustivePollingSystem.monitor "Probability I_n1_n2[7][14]" 0
scalar DynamicExhaustivePollingSystem.monitor "Probability I_n1_n2[7][15]" 0
scalar DynamicExhaustivePollingSystem.monitor "Probability I_n1_n2[7][16]" 0
scalar DynamicExhaustivePollingSystem.monitor "Probability I_n1_n2[7][17]" 0
scalar DynamicExhaustivePollingSystem.monitor "Probability I_n1_n2[7][18]" 0
scalar DynamicExhaustivePollingSystem.monitor "Probability I_n1_n2[7][19]" 0
scalar DynamicExhaustivePollingSystem.monitor "Probability I_n1_n2[8][0]" 0
scalar DynamicExhaustivePollingSystem.monitor "Probability I_n1_n2[8][1]" 0
scalar DynamicExhaustivePollingSystem.monitor "Probability I_n1_n2[8][2]" 0
scalar DynamicExhaustivePollingSystem.monitor "Probability I_n1_n2[8][3]" 0
scalar DynamicExhaustivePollingSystem.monitor "Probability I_n1_n2[8][4]" 0
scalar DynamicExhaustivePollingSystem.monitor "Probability I_n1_n2[8][5]" 0
scalar DynamicExhaustivePollingSystem.monitor "Probability I_n1_n2[8][6]" 0
scalar DynamicExhaustivePollingSystem.monitor "Probability I_n1_n2[8][7]" 0
scalar DynamicExhaustivePollingSystem.monitor "Probability I_n1_n2[8][8]" 0
scalar DynamicExhaustivePollingSystem.monitor "Probability I_n1_n2[8][9]" 0
scalar DynamicExhaustivePollingSystem.monitor "Probability I_n1_n2[8][10]" 0
scalar DynamicExhaustivePollingSystem.monitor "Probability I_n1_n2[8][11]" 0
scalar DynamicExhaustivePollingSystem.monitor "Probability I_n1_n2[8][12]" 0
scalar DynamicExhaustivePollingSystem.monitor "Probability I_n1_n2[8][13]" 0
scalar DynamicExhaustivePollingSystem.monitor "Probability I_n1_n2[8][14]" 0
scalar DynamicExhaustivePollingSystem.monitor "Probability I_n1_n2[8][15]" 0
scalar DynamicExhaustivePollingSystem.monitor "Probability I_n1_n2[8][16]" 0
scalar DynamicExhaustivePollingSystem.monitor "Probability I_n1_n2[8][17]" 0
scalar DynamicExhaustivePollingSystem.monitor "Probability I_n1_n2[8][18]" 0
scalar DynamicExhaustivePollingSystem.monitor "Probability I_n1_n2[8][19]" 0
scalar DynamicExhaustivePollingSystem.monitor "Probability I_n1_n2[9][0]" 0
scalar DynamicExhaustivePollingSystem.monitor "Probability I_n1_n2[9][1]" 0
scalar DynamicExhaustivePollingSystem.monitor "Probability I_n1_n2[9][2]" 0
scalar DynamicExhaustivePollingSystem.monitor "Probability I_n1_n2[9][3]" 0
scalar DynamicExhaustivePollingSystem.monitor "Probability I_n1_n2[9][4]" 0
scalar DynamicExhaustivePollingSystem.monitor "Probability I_n1_n2[9][5]" 0
scalar DynamicExhaustivePollingSystem.monitor "Probability I_n1_n2[9][6]" 0
scalar DynamicExhaustivePollingSystem.monitor "Probability I_n1_n2[9][7]" 0
scalar DynamicExhaustivePollingSystem.monitor "Probability I_n1_n2[9][8]" 0
scalar DynamicExhaustivePollingSystem.monitor "Probability I_n1_n2[9][9]" 0
scalar DynamicExhaustivePollingSystem.monitor "Probability I_n1_n2[9][10]" 0
scalar DynamicExhaustivePollingSystem.monitor "Probability I_n1_n2[9][11]" 0
scalar DynamicExhaustivePollingSystem.monitor "Probability I_n1_n2[9][12]" 0
scalar DynamicExhaustivePollingSystem.monitor "Probability I_n1_n2[9][13]" 0
scalar DynamicExhaustivePollingSystem.monitor "Probability I_n1_n2[9][14]" 0
scalar DynamicExhaustivePollingSystem.monitor "Probability I_n1_n2[9][15]" 0
scalar DynamicExhaustivePollingSystem.monitor "Probability I_n1_n2[9][16]" 0
scalar DynamicExhaustivePollingSystem.monitor "Probability I_n1_n2[9][17]" 0
scalar DynamicExhaustivePollingSystem.monitor "Probability I_n1_n2[9][18]" 0
scalar DynamicExhaustivePollingSystem.monitor "Probability I_n1_n2[9][19]" 0
scalar DynamicExhaustivePollingSystem.monitor "Probability I_n1_n2[10][0]" 0
scalar DynamicExhaustivePollingSystem.monitor "Probability I_n1_n2[10][1]" 0
scalar DynamicExhaustivePollingSystem.monitor "Probability I_n1_n2[10][2]" 0
scalar DynamicExhaustivePollingSystem.monitor "Probability I_n1_n2[10][3]" 0
scalar DynamicExhaustivePollingSystem.monitor "Probability I_n1_n2[10][4]" 0
scalar DynamicExhaustivePollingSystem.monitor "Probability I_n1_n2[10][5]" 0
scalar DynamicExhaustivePollingSystem.monitor "Probability I_n1_n2[10][6]" 0
scalar DynamicExhaustivePollingSystem.monitor "Probability I_n1_n2[10][7]" 0
scalar DynamicExhaustivePollingSystem.monitor "Probability I_n1_n2[10][8]" 0
scalar DynamicExhaustivePollingSystem.monitor "Probability I_n1_n2[10][9]" 0
scalar DynamicExhaustivePollingSystem.monitor "Probability I_n1_n2[10][10]" 0
scalar DynamicExhaustivePollingSystem.monitor "Probability I_n1_n2[10][11]" 0
scalar DynamicExhaustivePollingSystem.monitor "Probability I_n1_n2[10][12]" 0
scalar DynamicExhaustivePollingSystem.monitor "Probability I_n1_n2[10][13]" 0
scalar DynamicExhaustivePollingSystem.monitor "Probability I_n1_n2[10][14]" 0
scalar DynamicExhaustivePollingSystem.monitor "Probability I_n1_n2[10][15]" 0
scalar DynamicExhaustivePollingSystem.monitor "Probability I_n1_n2[10][16]" 0
scalar DynamicExhaustivePollingSystem.monitor "Probability I_n1_n2[10][17]" 0
scalar DynamicExhaustivePollingSystem.monitor "Probability I_n1_n2[10][18]" 0
scalar DynamicExhaustivePollingSystem.monitor "Probability I_n1_n2[10][19]" 0
scalar DynamicExhaustivePollingSystem.monitor "Probability I_n1_n2[11][0]" 0
scalar DynamicExhaustivePollingSystem.monitor "Probability I_n1_n2[11][1]" 0
scalar DynamicExhaustivePollingSystem.monitor "Probability I_n1_n2[11][2]" 0
scalar DynamicExhaustivePollingSystem.monitor "Probability I_n1_n2[11][3]" 0
scalar DynamicExhaustivePollingSystem.monitor "Probability I_n1_n2[11][4]" 0
scalar DynamicExhaustivePollingSystem.monitor "Probability I_n1_n2[11][5]" 0
scalar DynamicExhaustivePollingSystem.monitor "Probability I_n1_n2[11][6]" 0
scalar DynamicExhaustivePollingSystem.monitor "Probability I_n1_n2[11][7]" 0
scalar DynamicExhaustivePollingSystem.monitor "Probability I_n1_n2[11][8]" 0
scalar DynamicExhaustivePollingSystem.monitor "Probability I_n1_n2[11][9]" 0
scalar DynamicExhaustivePollingSystem.monitor "Probability I_n1_n2[11][10]" 0
scalar DynamicExhaustivePollingSystem.monitor "Probability I_n1_n2[11][11]" 0
scalar DynamicExhaustivePollingSystem.monitor "Probability I_n1_n2[11][12]" 0
scalar DynamicExhaustivePollingSystem.monitor "Probability I_n1_n2[11][13]" 0
scalar DynamicExhaustivePollingSystem.monitor "Probability I_n1_n2[11][14]" 0
scalar DynamicExhaustivePollingSystem.monitor "Probability I_n1_n2[11][15]" 0
scalar DynamicExhaustivePollingSystem.monitor "Probability I_n1_n2[11][16]" 0
scalar DynamicExhaustivePollingSystem.monitor "Probability I_n1_n2[11][17]" 0
scalar DynamicExhaustivePollingSystem.monitor "Probability I_n1_n2[11][18]" 0
scalar DynamicExhaustivePollingSystem.monitor "Probability I_n1_n2[11][19]" 0
scalar DynamicExhaustivePollingSystem.monitor "Probability I_n1_n2[12][0]" 0
scalar DynamicExhaustivePollingSystem.monitor "Probability I_n1_n2[12][1]" 0
scalar DynamicExhaustivePollingSystem.monitor "Probability I_n1_n2[12][2]" 0
scalar DynamicExhaustivePollingSystem.monitor "Probability I_n1_n2[12][3]" 0
scalar DynamicExhaustivePollingSystem.monitor "Probability I_n1_n2[12][4]" 0
scalar DynamicExhaustivePollingSystem.monitor "Probability I_n1_n2[12][5]" 0
scalar DynamicExhaustivePollingSystem.monitor "Probability I_n1_n2[12][6]" 0
scalar DynamicExhaustivePollingSystem.monitor "Probability I_n1_n2[12][7]" 0
scalar DynamicExhaustivePollingSystem.monitor "Probability I_n1_n2[12][8]" 0
scalar DynamicExhaustivePollingSystem.monitor "Probability I_n1_n2[12][9]" 0
scalar DynamicExhaustivePollingSystem.monitor "Probability I_n1_n2[12][10]" 0
scalar DynamicExhaustivePollingSystem.monitor "Probability I_n1_n2[12][11]" 0
scalar DynamicExhaustivePollingSystem.monitor "Probability I_n1_n2[12][12]" 0
scalar DynamicExhaustivePollingSystem.monitor "Probability I_n1_n2[12][13]" 0
scalar DynamicExhaustivePollingSystem.monitor "Probability I_n1_n2[12][14]" 0
scalar DynamicExhaustivePollingSystem.monitor "Probability I_n1_n2[12][15]" 0
scalar DynamicExhaustivePollingSystem.monitor "Probability I_n1_n2[12][16]" 0
scalar DynamicExhaustivePollingSystem.monitor "Probability I_n1_n2[12][17]" 0
scalar DynamicExhaustivePollingSystem.monitor "Probability I_n1_n2[12][18]" 0
scalar DynamicExhaustivePollingSystem.monitor "Probability I_n1_n2[12][19]" 0
scalar DynamicExhaustivePollingSystem.monitor "Probability I_n1_n2[13][0]" 0
scalar DynamicExhaustivePollingSystem.monitor "Probability I_n1_n2[13][1]" 0
scalar DynamicExhaustivePollingSystem.monitor "Probability I_n1_n2[13][2]" 0
scalar DynamicExhaustivePollingSystem.monitor "Probability I_n1_n2[13][3]" 0
scalar DynamicExhaustivePollingSystem.monitor "Probability I_n1_n2[13][4]" 0
scalar DynamicExhaustivePollingSystem.monitor "Probability I_n1_n2[13][5]" 0
scalar DynamicExhaustivePollingSystem.monitor "Probability I_n1_n2[13][6]" 0
scalar DynamicExhaustivePollingSystem.monitor "Probability I_n1_n2[13][7]" 0
scalar DynamicExhaustivePollingSystem.monitor "Probability I_n1_n2[13][8]" 0
scalar DynamicExhaustivePollingSystem.monitor "Probability I_n1_n2[13][9]" 0
scalar DynamicExhaustivePollingSystem.monitor "Probability I_n1_n2[13][10]" 0
scalar DynamicExhaustivePollingSystem.monitor "Probability I_n1_n2[13][11]" 0
scalar DynamicExhaustivePollingSystem.monitor "Probability I_n1_n2[13][12]" 0
scalar DynamicExhaustivePollingSystem.monitor "Probability I_n1_n2[13][13]" 0
scalar DynamicExhaustivePollingSystem.monitor "Probability I_n1_n2[13][14]" 0
scalar DynamicExhaustivePollingSystem.monitor "Probability I_n1_n2[13][15]" 0
scalar DynamicExhaustivePollingSystem.monitor "Probability I_n1_n2[13][16]" 0
scalar DynamicExhaustivePollingSystem.monitor "Probability I_n1_n2[13][17]" 0
scalar DynamicExhaustivePollingSystem.monitor "Probability I_n1_n2[13][18]" 0
scalar DynamicExhaustivePollingSystem.monitor "Probability I_n1_n2[13][19]" 0
scalar DynamicExhaustivePollingSystem.monitor "Probability I_n1_n2[14][0]" 0
scalar DynamicExhaustivePollingSystem.monitor "Probability I_n1_n2[14][1]" 0
scalar DynamicExhaustivePollingSystem.monitor "Probability I_n1_n2[14][2]" 0
scalar DynamicExhaustivePollingSystem.monitor "Probability I_n1_n2[14][3]" 0
scalar DynamicExhaustivePollingSystem.monitor "Probability I_n1_n2[14][4]" 0
scalar DynamicExhaustivePollingSystem.monitor "Probability I_n1_n2[14][5]" 0
scalar DynamicExhaustivePollingSystem.monitor "Probability I_n1_n2[14][6]" 0
scalar DynamicExhaustivePollingSystem.monitor "Probability I_n1_n2[14][7]" 0
scalar DynamicExhaustivePollingSystem.monitor "Probability I_n1_n2[14][8]" 0
scalar DynamicExhaustivePollingSystem.monitor "Probability I_n1_n2[14][9]" 0
scalar DynamicExhaustivePollingSystem.monitor "Probability I_n1_n2[14][10]" 0
scalar DynamicExhaustivePollingSystem.monitor "Probability I_n1_n2[14][11]" 0
scalar DynamicExhaustivePollingSystem.monitor "Probability I_n1_n2[14][12]" 0
scalar DynamicExhaustivePollingSystem.monitor "Probability I_n1_n2[14][13]" 0
scalar DynamicExhaustivePollingSystem.monitor "Probability I_n1_n2[14][14]" 0
scalar DynamicExhaustivePollingSystem.monitor "Probability I_n1_n2[14][15]" 0
scalar DynamicExhaustivePollingSystem.monitor "Probability I_n1_n2[14][16]" 0
scalar DynamicExhaustivePollingSystem.monitor "Probability I_n1_n2[14][17]" 0
scalar DynamicExhaustivePollingSystem.monitor "Probability I_n1_n2[14][18]" 0
scalar DynamicExhaustivePollingSystem.monitor "Probability I_n1_n2[14][19]" 0
scalar DynamicExhaustivePollingSystem.monitor "Probability I_n1_n2[15][0]" 0
scalar DynamicExhaustivePollingSystem.monitor "Probability I_n1_n2[15][1]" 0
scalar DynamicExhaustivePollingSystem.monitor "Probability I_n1_n2[15][2]" 0
scalar DynamicExhaustivePollingSystem.monitor "Probability I_n1_n2[15][3]" 0
scalar DynamicExhaustivePollingSystem.monitor "Probability I_n1_n2[15][4]" 0
scalar DynamicExhaustivePollingSystem.monitor "Probability I_n1_n2[15][5]" 0
scalar DynamicExhaustivePollingSystem.monitor "Probability I_n1_n2[15][6]" 0
scalar DynamicExhaustivePollingSystem.monitor "Probability I_n1_n2[15][7]" 0
scalar DynamicExhaustivePollingSystem.monitor "Probability I_n1_n2[15][8]" 0
scalar DynamicExhaustivePollingSystem.monitor "Probability I_n1_n2[15][9]" 0
scalar DynamicExhaustivePollingSystem.monitor "Probability I_n1_n2[15][10]" 0
scalar DynamicExhaustivePollingSystem.monitor "Probability I_n1_n2[15][11]" 0
scalar DynamicExhaustivePollingSystem.monitor "Probability I_n1_n2[15][12]" 0
scalar DynamicExhaustivePollingSystem.monitor "Probability I_n1_n2[15][13]" 0
scalar DynamicExhaustivePollingSystem.monitor "Probability I_n1_n2[15][14]" 0
scalar DynamicExhaustivePollingSystem.monitor "Probability I_n1_n2[15][15]" 0
scalar DynamicExhaustivePollingSystem.monitor "Probability I_n1_n2[15][16]" 0
scalar DynamicExhaustivePollingSystem.monitor "Probability I_n1_n2[15][17]" 0
scalar DynamicExhaustivePollingSystem.monitor "Probability I_n1_n2[15][18]" 0
scalar DynamicExhaustivePollingSystem.monitor "Probability I_n1_n2[15][19]" 0
scalar DynamicExhaustivePollingSystem.monitor "Probability I_n1_n2[16][0]" 0
scalar DynamicExhaustivePollingSystem.monitor "Probability I_n1_n2[16][1]" 0
scalar DynamicExhaustivePollingSystem.monitor "Probability I_n1_n2[16][2]" 0
scalar DynamicExhaustivePollingSystem.monitor "Probability I_n1_n2[16][3]" 0
scalar DynamicExhaustivePollingSystem.monitor "Probability I_n1_n2[16][4]" 0
scalar DynamicExhaustivePollingSystem.monitor "Probability I_n1_n2[16][5]" 0
scalar DynamicExhaustivePollingSystem.monitor "Probability I_n1_n2[16][6]" 0
scalar DynamicExhaustivePollingSystem.monitor "Probability I_n1_n2[16][7]" 0
scalar DynamicExhaustivePollingSystem.monitor "Probability I_n1_n2[16][8]" 0
scalar DynamicExhaustivePollingSystem.monitor "Probability I_n1_n2[16][9]" 0
scalar DynamicExhaustivePollingSystem.monitor "Probability I_n1_n2[16][10]" 0
scalar DynamicExhaustivePollingSystem.monitor "Probability I_n1_n2[16][11]" 0
scalar DynamicExhaustivePollingSystem.monitor "Probability I_n1_n2[16][12]" 0
scalar DynamicExhaustivePollingSystem.monitor "Probability I_n1_n2[16][13]" 0
scalar DynamicExhaustivePollingSystem.monitor "Probability I_n1_n2[16][14]" 0
scalar DynamicExhaustivePollingSystem.monitor "Probability I_n1_n2[16][15]" 0
scalar DynamicExhaustivePollingSystem.monitor "Probability I_n1_n2[16][16]" 0
scalar DynamicExhaustivePollingSystem.monitor "Probability I_n1_n2[16][17]" 0
scalar DynamicExhaustivePollingSystem.monitor "Probability I_n1_n2[16][18]" 0
scalar DynamicExhaustivePollingSystem.monitor "Probability I_n1_n2[16][19]" 0
scalar DynamicExhaustivePollingSystem.monitor "Probability I_n1_n2[17][0]" 0
scalar DynamicExhaustivePollingSystem.monitor "Probability I_n1_n2[17][1]" 0
scalar DynamicExhaustivePollingSystem.monitor "Probability I_n1_n2[17][2]" 0
scalar DynamicExhaustivePollingSystem.monitor "Probability I_n1_n2[17][3]" 0
scalar DynamicExhaustivePollingSystem.monitor "Probability I_n1_n2[17][4]" 0
scalar DynamicExhaustivePollingSystem.monitor "Probability I_n1_n2[17][5]" 0
scalar DynamicExhaustivePollingSystem.monitor "Probability I_n1_n2[17][6]" 0
scalar DynamicExhaustivePollingSystem.monitor "Probability I_n1_n2[17][7]" 0
scalar DynamicExhaustivePollingSystem.monitor "Probability I_n1_n2[17][8]" 0
scalar DynamicExhaustivePollingSystem.monitor "Probability I_n1_n2[17][9]" 0
scalar DynamicExhaustivePollingSystem.monitor "Probability I_n1_n2[17][10]" 0
scalar DynamicExhaustivePollingSystem.monitor "Probability I_n1_n2[17][11]" 0
scalar DynamicExhaustivePollingSystem.monitor "Probability I_n1_n2[17][12]" 0
scalar DynamicExhaustivePollingSystem.monitor "Probability I_n1_n2[17][13]" 0
scalar DynamicExhaustivePollingSystem.monitor "Probability I_n1_n2[17][14]" 0
scalar DynamicExhaustivePollingSystem.monitor "Probability I_n1_n2[17][15]" 0
scalar DynamicExhaustivePollingSystem.monitor "Probability I_n1_n2[17][16]" 0
scalar DynamicExhaustivePollingSystem.monitor "Probability I_n1_n2[17][17]" 0
scalar DynamicExhaustivePollingSystem.monitor "Probability I_n1_n2[17][18]" 0
scalar DynamicExhaustivePollingSystem.monitor "Probability I_n1_n2[17][19]" 0
scalar DynamicExhaustivePollingSystem.monitor "Probability I_n1_n2[18][0]" 0
scalar DynamicExhaustivePollingSystem.monitor "Probability I_n1_n2[18][1]" 0
scalar DynamicExhaustivePollingSystem.monitor "Probability I_n1_n2[18][2]" 0
scalar DynamicExhaustivePollingSystem.monitor "Probability I_n1_n2[18][3]" 0
scalar DynamicExhaustivePollingSystem.monitor "Probability I_n1_n2[18][4]" 0
scalar DynamicExhaustivePollingSystem.monitor "Probability I_n1_n2[18][5]" 0
scalar DynamicExhaustivePollingSystem.monitor "Probability I_n1_n2[18][6]" 0
scalar DynamicExhaustivePollingSystem.monitor "Probability I_n1_n2[18][7]" 0
scalar DynamicExhaustivePollingSystem.monitor "Probability I_n1_n2[18][8]" 0
scalar DynamicExhaustivePollingSystem.monitor "Probability I_n1_n2[18][9]" 0
scalar DynamicExhaustivePollingSystem.monitor "Probability I_n1_n2[18][10]" 0
scalar DynamicExhaustivePollingSystem.monitor "Probability I_n1_n2[18][11]" 0
scalar DynamicExhaustivePollingSystem.monitor "Probability I_n1_n2[18][12]" 0
scalar DynamicExhaustivePollingSystem.monitor "Probability I_n1_n2[18][13]" 0
scalar DynamicExhaustivePollingSystem.monitor "Probability I_n1_n2[18][14]" 0
scalar DynamicExhaustivePollingSystem.monitor "Probability I_n1_n2[18][15]" 0
scalar DynamicExhaustivePollingSystem.monitor "Probability I_n1_n2[18][16]" 0
scalar DynamicExhaustivePollingSystem.monitor "Probability I_n1_n2[18][17]" 0
scalar DynamicExhaustivePollingSystem.monitor "Probability I_n1_n2[18][18]" 0
scalar DynamicExhaustivePollingSystem.monitor "Probability I_n1_n2[18][19]" 0
scalar DynamicExhaustivePollingSystem.monitor "Probability I_n1_n2[19][0]" 0
scalar DynamicExhaustivePollingSystem.monitor "Probability I_n1_n2[19][1]" 0
scalar DynamicExhaustivePollingSystem.monitor "Probability I_n1_n2[19][2]" 0
scalar DynamicExhaustivePollingSystem.monitor "Probability I_n1_n2[19][3]" 0
scalar DynamicExhaustivePollingSystem.monitor "Probability I_n1_n2[19][4]" 0
scalar DynamicExhaustivePollingSystem.monitor "Probability I_n1_n2[19][5]" 0
scalar DynamicExhaustivePollingSystem.monitor "Probability I_n1_n2[19][6]" 0
scalar DynamicExhaustivePollingSystem.monitor "Probability I_n1_n2[19][7]" 0
scalar DynamicExhaustivePollingSystem.monitor "Probability I_n1_n2[19][8]" 0
scalar DynamicExhaustivePollingSystem.monitor "Probability I_n1_n2[19][9]" 0
scalar DynamicExhaustivePollingSystem.monitor "Probability I_n1_n2[19][10]" 0
scalar DynamicExhaustivePollingSystem.monitor "Probability I_n1_n2[19][11]" 0
scalar DynamicExhaustivePollingSystem.monitor "Probability I_n1_n2[19][12]" 0
scalar DynamicExhaustivePollingSystem.monitor "Probability I_n1_n2[19][13]" 0
scalar DynamicExhaustivePollingSystem.monitor "Probability I_n1_n2[19][14]" 0
scalar DynamicExhaustivePollingSystem.monitor "Probability I_n1_n2[19][15]" 0
scalar DynamicExhaustivePollingSystem.monitor "Probability I_n1_n2[19][16]" 0
scalar DynamicExhaustivePollingSystem.monitor "Probability I_n1_n2[19][17]" 0
scalar DynamicExhaustivePollingSystem.monitor "Probability I_n1_n2[19][18]" 0
scalar DynamicExhaustivePollingSystem.monitor "Probability I_n1_n2[19][19]" 0
scalar DynamicExhaustivePollingSystem.monitor "Probability C1_0_1_0_0" 0
par DynamicExhaustivePollingSystem typename "\"DynamicExhaustivePollingSystem\""
par DynamicExhaustivePollingSystem numQueues 2

