version 3
run CyclicExhaustiveBatchPollingSystem-0-20230608-01:24:50-6688
attr configname CyclicExhaustiveBatchPollingSystem
attr datetime 20230608-01:24:50
attr datetimef 20230608-012450
attr experiment CyclicExhaustiveBatchPollingSystem
attr inifile omnetpp.ini
attr iterationvars ""
attr iterationvarsd ""
attr iterationvarsf ""
attr measurement ""
attr network CyclicExhaustiveBatchPollingSystem
attr processid 6688
attr repetition 0
attr replication #0
attr resultdir results
attr runnumber 0
attr seedset 0
config description "Cyclic Exhaustive Batch Polling System"
config network CyclicExhaustiveBatchPollingSystem
config *.numQueues 2
config *.generator[*].interarrivalTime exponential(1/5)
config *.cyclicExhaustiveBatchQueue[*].serviceTime exponential(1/100)
config *.cyclicExhaustiveBatchQueue[*].batchSize 2
config *.cyclicServer.switchoverTime "\"0.001 0.001\""
config rng-class cMersenneTwister
config output-scalar-file results/CyclicExhaustiveBatchPollingSystem-20230608-012450-#.sca
config cmdenv-output-file results/CyclicExhaustiveBatchPollingSystem-20230608-012450-#.out

par CyclicExhaustiveBatchPollingSystem.generator[0] typename "\"Generator\""
par CyclicExhaustiveBatchPollingSystem.generator[0] interarrivalTime exponential(0.2)
par CyclicExhaustiveBatchPollingSystem.generator[1] typename "\"Generator\""
par CyclicExhaustiveBatchPollingSystem.generator[1] interarrivalTime exponential(0.2)
par CyclicExhaustiveBatchPollingSystem.cyclicExhaustiveBatchQueue[0] typename "\"CyclicExhaustiveBatchQueue\""
par CyclicExhaustiveBatchPollingSystem.cyclicExhaustiveBatchQueue[0] serviceTime exponential(0.01)
par CyclicExhaustiveBatchPollingSystem.cyclicExhaustiveBatchQueue[0] batchSize 2
par CyclicExhaustiveBatchPollingSystem.cyclicExhaustiveBatchQueue[0] ownIndex 0
scalar CyclicExhaustiveBatchPollingSystem.cyclicExhaustiveBatchQueue[0] "Mean queue length at its polling moment in queue[0]" 0.010518113786739
scalar CyclicExhaustiveBatchPollingSystem.cyclicExhaustiveBatchQueue[0] "Mean waiting time in queue[0]" 0.0025181284862926
scalar CyclicExhaustiveBatchPollingSystem.cyclicExhaustiveBatchQueue[0] "Mean sojourn time in queue[0]" 0.012518518007067
scalar CyclicExhaustiveBatchPollingSystem.cyclicExhaustiveBatchQueue[0] "Mean cycle time in queue[0]" 0.002219539766531
scalar CyclicExhaustiveBatchPollingSystem.cyclicExhaustiveBatchQueue[0] "Mean intervisit time in queue[0]" 0.0021101291624325
scalar CyclicExhaustiveBatchPollingSystem.cyclicExhaustiveBatchQueue[0] "Number of cycle in queue[0]" 36136231
par CyclicExhaustiveBatchPollingSystem.cyclicExhaustiveBatchQueue[1] typename "\"CyclicExhaustiveBatchQueue\""
par CyclicExhaustiveBatchPollingSystem.cyclicExhaustiveBatchQueue[1] serviceTime exponential(0.01)
par CyclicExhaustiveBatchPollingSystem.cyclicExhaustiveBatchQueue[1] batchSize 2
par CyclicExhaustiveBatchPollingSystem.cyclicExhaustiveBatchQueue[1] ownIndex 1
scalar CyclicExhaustiveBatchPollingSystem.cyclicExhaustiveBatchQueue[1] "Mean queue length at its polling moment in queue[1]" 0.01056822969257
scalar CyclicExhaustiveBatchPollingSystem.cyclicExhaustiveBatchQueue[1] "Mean waiting time in queue[1]" 0.0025171328780037
scalar CyclicExhaustiveBatchPollingSystem.cyclicExhaustiveBatchQueue[1] "Mean sojourn time in queue[1]" 0.012552018856638
scalar CyclicExhaustiveBatchPollingSystem.cyclicExhaustiveBatchQueue[1] "Mean cycle time in queue[1]" 0.0022195397253628
scalar CyclicExhaustiveBatchPollingSystem.cyclicExhaustiveBatchQueue[1] "Mean intervisit time in queue[1]" 0.0021093216728894
scalar CyclicExhaustiveBatchPollingSystem.cyclicExhaustiveBatchQueue[1] "Number of cycle in queue[1]" 36136231
par CyclicExhaustiveBatchPollingSystem.cyclicServer typename "\"CyclicServer\""
par CyclicExhaustiveBatchPollingSystem.cyclicServer switchoverTime "\"0.001 0.001\""
par CyclicExhaustiveBatchPollingSystem.cyclicServer numQueues 2
scalar CyclicExhaustiveBatchPollingSystem.cyclicServer "Mean cycle time in the server" 0.0022195397210111
scalar CyclicExhaustiveBatchPollingSystem.cyclicServer "Number of cycle" 36136231
par CyclicExhaustiveBatchPollingSystem.sink typename "\"Sink\""
scalar CyclicExhaustiveBatchPollingSystem.sink "Mean sojourn time" 0.012535305640023
scalar CyclicExhaustiveBatchPollingSystem.sink "Number of packets" 801773
scalar CyclicExhaustiveBatchPollingSystem.sink "Working time" 69.018
par CyclicExhaustiveBatchPollingSystem typename "\"CyclicExhaustiveBatchPollingSystem\""
par CyclicExhaustiveBatchPollingSystem numQueues 2

