version 3
run CyclicExhaustiveBatchPollingSystem-9-20230606-18:29:17-20960
attr configname CyclicExhaustiveBatchPollingSystem
attr datetime 20230606-18:29:17
attr datetimef 20230606-182917
attr experiment CyclicExhaustiveBatchPollingSystem
attr inifile omnetpp.ini
attr iterationvars $0=45
attr iterationvarsd 45
attr iterationvarsf 45-
attr measurement $0=45
attr network CyclicExhaustiveBatchPollingSystem
attr processid 20960
attr repetition 0
attr replication #0
attr resultdir results
attr runnumber 9
attr seedset 9
config cmdenv-redirect-output true
config description "Cyclic Exhaustive Batch Polling System"
config network CyclicExhaustiveBatchPollingSystem
config *.numQueues 2
config *.generator[*].interarrivalTime exponential(1/45)
config *.cyclicExhaustiveBatchQueue[*].serviceTime exponential(1/100)
config *.cyclicExhaustiveBatchQueue[*].batchSize 3
config *.cyclicServer.switchoverTime "\"0.001 0.001\""
config rng-class cMersenneTwister
config output-scalar-file results/CyclicExhaustiveBatchPollingSystem-20230606-182917-#45-.sca
config cmdenv-output-file results/CyclicExhaustiveBatchPollingSystem-20230606-182917-#45-.out

par CyclicExhaustiveBatchPollingSystem.generator[0] typename "\"Generator\""
par CyclicExhaustiveBatchPollingSystem.generator[0] interarrivalTime exponential(0.0222222)
par CyclicExhaustiveBatchPollingSystem.generator[1] typename "\"Generator\""
par CyclicExhaustiveBatchPollingSystem.generator[1] interarrivalTime exponential(0.0222222)
par CyclicExhaustiveBatchPollingSystem.cyclicExhaustiveBatchQueue[0] typename "\"CyclicExhaustiveBatchQueue\""
par CyclicExhaustiveBatchPollingSystem.cyclicExhaustiveBatchQueue[0] serviceTime exponential(0.01)
par CyclicExhaustiveBatchPollingSystem.cyclicExhaustiveBatchQueue[0] batchSize 3
par CyclicExhaustiveBatchPollingSystem.cyclicExhaustiveBatchQueue[0] ownIndex 0
scalar CyclicExhaustiveBatchPollingSystem.cyclicExhaustiveBatchQueue[0] "Mean queue length at its polling moment in queue[0]" 0.17656419773724
scalar CyclicExhaustiveBatchPollingSystem.cyclicExhaustiveBatchQueue[0] "Mean waiting time in queue[0]" 0.011155601925871
scalar CyclicExhaustiveBatchPollingSystem.cyclicExhaustiveBatchQueue[0] "Mean sojourn time in queue[0]" 0.021126521882515
scalar CyclicExhaustiveBatchPollingSystem.cyclicExhaustiveBatchQueue[0] "Mean cycle time in queue[0]" 0.0058753955856081
scalar CyclicExhaustiveBatchPollingSystem.cyclicExhaustiveBatchQueue[0] "Mean intervisit time in queue[0]" 0.0039377138405283
scalar CyclicExhaustiveBatchPollingSystem.cyclicExhaustiveBatchQueue[0] "Number of cycle in queue[0]" 2105743
par CyclicExhaustiveBatchPollingSystem.cyclicExhaustiveBatchQueue[1] typename "\"CyclicExhaustiveBatchQueue\""
par CyclicExhaustiveBatchPollingSystem.cyclicExhaustiveBatchQueue[1] serviceTime exponential(0.01)
par CyclicExhaustiveBatchPollingSystem.cyclicExhaustiveBatchQueue[1] batchSize 3
par CyclicExhaustiveBatchPollingSystem.cyclicExhaustiveBatchQueue[1] ownIndex 1
scalar CyclicExhaustiveBatchPollingSystem.cyclicExhaustiveBatchQueue[1] "Mean queue length at its polling moment in queue[1]" 0.17682111405755
scalar CyclicExhaustiveBatchPollingSystem.cyclicExhaustiveBatchQueue[1] "Mean waiting time in queue[1]" 0.01119481875041
scalar CyclicExhaustiveBatchPollingSystem.cyclicExhaustiveBatchQueue[1] "Mean sojourn time in queue[1]" 0.021192911210378
scalar CyclicExhaustiveBatchPollingSystem.cyclicExhaustiveBatchQueue[1] "Mean cycle time in queue[1]" 0.005875392551095
scalar CyclicExhaustiveBatchPollingSystem.cyclicExhaustiveBatchQueue[1] "Mean intervisit time in queue[1]" 0.003938297057062
scalar CyclicExhaustiveBatchPollingSystem.cyclicExhaustiveBatchQueue[1] "Number of cycle in queue[1]" 2105743
par CyclicExhaustiveBatchPollingSystem.cyclicServer typename "\"CyclicServer\""
par CyclicExhaustiveBatchPollingSystem.cyclicServer switchoverTime "\"0.001 0.001\""
par CyclicExhaustiveBatchPollingSystem.cyclicServer numQueues 2
scalar CyclicExhaustiveBatchPollingSystem.cyclicServer "Mean cycle time in the server" 0.0058753950538401
scalar CyclicExhaustiveBatchPollingSystem.cyclicServer "Number of cycle" 2105743
par CyclicExhaustiveBatchPollingSystem.sink typename "\"Sink\""
scalar CyclicExhaustiveBatchPollingSystem.sink "Mean sojourn time" 0.021159722098761
scalar CyclicExhaustiveBatchPollingSystem.sink "Number of packets" 1112006
scalar CyclicExhaustiveBatchPollingSystem.sink "Working time" 4.888
par CyclicExhaustiveBatchPollingSystem typename "\"CyclicExhaustiveBatchPollingSystem\""
par CyclicExhaustiveBatchPollingSystem numQueues 2

