version 3
run DynamicExhausedPollingSystem-0-20230502-00:43:04-25960
attr configname DynamicExhausedPollingSystem
attr datetime 20230502-00:43:04
attr datetimef 20230502-004304
attr experiment DynamicExhausedPollingSystem
attr inifile omnetpp.ini
attr iterationvars ""
attr iterationvarsd ""
attr iterationvarsf ""
attr measurement ""
attr network DynamicExhausedPollingSystem
attr processid 25960
attr repetition 0
attr replication #0
attr resultdir results
attr runnumber 0
attr seedset 0
config description "Dynamic Adaptive Exhaused Polling System"
config network DynamicExhausedPollingSystem
config *.numQueues 2
config *.generator[0].interArrivalTime exponential(1/30)
config *.generator[1].interArrivalTime exponential(1/20)
config *.dynamicExhausedQueue[*].serviceTime exponential(0.01)
config *.dynamicServer.switchingTime "\"0.001 0.001 0.001 0.0006 0.000667 0.000667 0.000667 0.000667 0.000667 0.000667\""
config *.dynamicServer.restTime exponential(0.002)
config rng-class cMersenneTwister
config output-scalar-file results/20230502-004304-0-#0.sca
config cmdenv-output-file results/20230502-004304-0-#0.out

par DynamicExhausedPollingSystem.generator[0] typename "\"Generator\""
par DynamicExhausedPollingSystem.generator[0] interArrivalTime exponential(0.0333333)
par DynamicExhausedPollingSystem.generator[1] typename "\"Generator\""
par DynamicExhausedPollingSystem.generator[1] interArrivalTime exponential(0.05)
par DynamicExhausedPollingSystem.dynamicExhausedQueue[0] typename "\"DynamicExhausedQueue\""
par DynamicExhausedPollingSystem.dynamicExhausedQueue[0] serviceTime exponential(0.01)
par DynamicExhausedPollingSystem.dynamicExhausedQueue[0] ownIndex 0
scalar DynamicExhausedPollingSystem.dynamicExhausedQueue[0] "Mean waiting time in DynamicExhausedQueue" 0.011934752544823
scalar DynamicExhausedPollingSystem.dynamicExhausedQueue[0] "Mean sojourn time in DynamicExhausedQueue" 0.021937386407803
scalar DynamicExhausedPollingSystem.dynamicExhausedQueue[0] "Mean cycle time in DynamicExhausedQueue" 0.0052191760416865
scalar DynamicExhausedPollingSystem.dynamicExhausedQueue[0] "Mean intervisit time in DynamicExhausedQueue" 0.003652420465178
scalar DynamicExhausedPollingSystem.dynamicExhausedQueue[0] "Number of cycle in DynamicExhausedQueue" 23689032
par DynamicExhausedPollingSystem.dynamicExhausedQueue[1] typename "\"DynamicExhausedQueue\""
par DynamicExhausedPollingSystem.dynamicExhausedQueue[1] serviceTime exponential(0.01)
par DynamicExhausedPollingSystem.dynamicExhausedQueue[1] ownIndex 1
scalar DynamicExhausedPollingSystem.dynamicExhausedQueue[1] "Mean waiting time in DynamicExhausedQueue" 0.014201453187785
scalar DynamicExhausedPollingSystem.dynamicExhausedQueue[1] "Mean sojourn time in DynamicExhausedQueue" 0.024203226158548
scalar DynamicExhausedPollingSystem.dynamicExhausedQueue[1] "Mean cycle time in DynamicExhausedQueue" 0.0052777573448154
scalar DynamicExhausedPollingSystem.dynamicExhausedQueue[1] "Mean intervisit time in DynamicExhausedQueue" 0.0042211994244414
scalar DynamicExhausedPollingSystem.dynamicExhausedQueue[1] "Number of cycle in DynamicExhausedQueue" 23426092
par DynamicExhausedPollingSystem.dynamicServer typename "\"DynamicServer\""
par DynamicExhausedPollingSystem.dynamicServer switchingTime "\"0.001 0.001 0.001 0.0006 0.000667 0.000667 0.000667 0.000667 0.000667 0.000667\""
par DynamicExhausedPollingSystem.dynamicServer restTime exponential(0.002)
par DynamicExhausedPollingSystem.dynamicServer numQueues 2
scalar DynamicExhausedPollingSystem.dynamicServer "Mean cycle time in the server" 0.0027361516072892
scalar DynamicExhausedPollingSystem.dynamicServer "Number of cycle" 45186542
par DynamicExhausedPollingSystem.sink typename "\"Sink\""
scalar DynamicExhausedPollingSystem.sink "Mean sojourn time" 0.022843939983506
scalar DynamicExhausedPollingSystem.sink "Number of packets" 6185182
scalar DynamicExhausedPollingSystem.sink "Working time" 431.396
par DynamicExhausedPollingSystem.monitor typename "\"Monitor\""
par DynamicExhausedPollingSystem.monitor numQueues 2
scalar DynamicExhausedPollingSystem.monitor "Probability C1" 19.158190208808
scalar DynamicExhausedPollingSystem.monitor "Probability C2" 18.944793900366
scalar DynamicExhausedPollingSystem.monitor "Probability S1" 30.01920374027
scalar DynamicExhausedPollingSystem.monitor "Probability S2" 20.01906359437
scalar DynamicExhausedPollingSystem.monitor "Probability I" 11.858720679308
scalar DynamicExhausedPollingSystem.monitor "Probability C1_1_1" 7.48657585719
scalar DynamicExhausedPollingSystem.monitor "Probability C1_1_0" 11.671614351611
scalar DynamicExhausedPollingSystem.monitor "Probability C2_1_1" 12.382823966339
scalar DynamicExhausedPollingSystem.monitor "Probability C2_0_1" 6.5619699340277
scalar DynamicExhausedPollingSystem.monitor "Probability S1_1_1" 15.783839375013
scalar DynamicExhausedPollingSystem.monitor "Probability S1_1_0" 14.235364365259
scalar DynamicExhausedPollingSystem.monitor "Probability S2_1_1" 10.559515936221
scalar DynamicExhausedPollingSystem.monitor "Probability S2_0_1" 9.4595476581487
scalar DynamicExhausedPollingSystem.monitor "Probability C1_1_1_n1_n2[i][j]" 6.0461726644235
scalar DynamicExhausedPollingSystem.monitor "Probability C1_1_1_n1_n2[i][j]" 0.44392145900088
scalar DynamicExhausedPollingSystem.monitor "Probability C1_1_1_n1_n2[i][j]" 0.054393906208267
scalar DynamicExhausedPollingSystem.monitor "Probability C1_1_1_n1_n2[i][j]" 0.013167641971105
scalar DynamicExhausedPollingSystem.monitor "Probability C1_1_1_n1_n2[i][j]" 0.0045085691246238
scalar DynamicExhausedPollingSystem.monitor "Probability C1_1_1_n1_n2[i][j]" 0.0016793368352009
scalar DynamicExhausedPollingSystem.monitor "Probability C1_1_1_n1_n2[i][j]" 0.0006271739224755
scalar DynamicExhausedPollingSystem.monitor "Probability C1_1_1_n1_n2[i][j]" 0.00025836030984719
scalar DynamicExhausedPollingSystem.monitor "Probability C1_1_1_n1_n2[i][j]" 0.00010220574677508
scalar DynamicExhausedPollingSystem.monitor "Probability C1_1_1_n1_n2[i][j]" 3.9254861719563e-05
scalar DynamicExhausedPollingSystem.monitor "Probability C1_1_1_n1_n2[i][j]" 2.5547134524495e-05
scalar DynamicExhausedPollingSystem.monitor "Probability C1_1_1_n1_n2[i][j]" 4.3245128672947e-06
scalar DynamicExhausedPollingSystem.monitor "Probability C1_1_1_n1_n2[i][j]" 6.3655837454011e-06
scalar DynamicExhausedPollingSystem.monitor "Probability C1_1_1_n1_n2[i][j]" 1.8705798525163e-06
scalar DynamicExhausedPollingSystem.monitor "Probability C1_1_1_n1_n2[i][j]" 2.1687746200449e-06
scalar DynamicExhausedPollingSystem.monitor "Probability C1_1_1_n1_n2[i][j]" 5.3264694181906e-08
scalar DynamicExhausedPollingSystem.monitor "Probability C1_1_1_n1_n2[i][j]" 0
scalar DynamicExhausedPollingSystem.monitor "Probability C1_1_1_n1_n2[i][j]" 0
scalar DynamicExhausedPollingSystem.monitor "Probability C1_1_1_n1_n2[i][j]" 0
scalar DynamicExhausedPollingSystem.monitor "Probability C1_1_1_n1_n2[i][j]" 0
scalar DynamicExhausedPollingSystem.monitor "Probability C1_1_1_n1_n2[i][j]" 0.7334320247335
scalar DynamicExhausedPollingSystem.monitor "Probability C1_1_1_n1_n2[i][j]" 0.05147136461797
scalar DynamicExhausedPollingSystem.monitor "Probability C1_1_1_n1_n2[i][j]" 0.0038201962821822
scalar DynamicExhausedPollingSystem.monitor "Probability C1_1_1_n1_n2[i][j]" 0.00051775135451089
scalar DynamicExhausedPollingSystem.monitor "Probability C1_1_1_n1_n2[i][j]" 0.00015735341526177
scalar DynamicExhausedPollingSystem.monitor "Probability C1_1_1_n1_n2[i][j]" 5.970914005408e-05
scalar DynamicExhausedPollingSystem.monitor "Probability C1_1_1_n1_n2[i][j]" 4.3744232285874e-05
scalar DynamicExhausedPollingSystem.monitor "Probability C1_1_1_n1_n2[i][j]" 1.0541861392119e-05
scalar DynamicExhausedPollingSystem.monitor "Probability C1_1_1_n1_n2[i][j]" 1.3853307451581e-06
scalar DynamicExhausedPollingSystem.monitor "Probability C1_1_1_n1_n2[i][j]" 2.2986309176578e-06
scalar DynamicExhausedPollingSystem.monitor "Probability C1_1_1_n1_n2[i][j]" 0
scalar DynamicExhausedPollingSystem.monitor "Probability C1_1_1_n1_n2[i][j]" 0
scalar DynamicExhausedPollingSystem.monitor "Probability C1_1_1_n1_n2[i][j]" 0
scalar DynamicExhausedPollingSystem.monitor "Probability C1_1_1_n1_n2[i][j]" 5.3605905299943e-07
scalar DynamicExhausedPollingSystem.monitor "Probability C1_1_1_n1_n2[i][j]" 0
scalar DynamicExhausedPollingSystem.monitor "Probability C1_1_1_n1_n2[i][j]" 0
scalar DynamicExhausedPollingSystem.monitor "Probability C1_1_1_n1_n2[i][j]" 0
scalar DynamicExhausedPollingSystem.monitor "Probability C1_1_1_n1_n2[i][j]" 0
scalar DynamicExhausedPollingSystem.monitor "Probability C1_1_1_n1_n2[i][j]" 0
scalar DynamicExhausedPollingSystem.monitor "Probability C1_1_1_n1_n2[i][j]" 0
scalar DynamicExhausedPollingSystem.monitor "Probability C1_1_1_n1_n2[i][j]" 0.093758939184468
scalar DynamicExhausedPollingSystem.monitor "Probability C1_1_1_n1_n2[i][j]" 0.0054972691734827
scalar DynamicExhausedPollingSystem.monitor "Probability C1_1_1_n1_n2[i][j]" 0.00039586812446129
scalar DynamicExhausedPollingSystem.monitor "Probability C1_1_1_n1_n2[i][j]" 3.3767290558893e-05
scalar DynamicExhausedPollingSystem.monitor "Probability C1_1_1_n1_n2[i][j]" 7.0137002982979e-06
scalar DynamicExhausedPollingSystem.monitor "Probability C1_1_1_n1_n2[i][j]" 8.6712159970671e-06
scalar DynamicExhausedPollingSystem.monitor "Probability C1_1_1_n1_n2[i][j]" 4.0146877407455e-06
scalar DynamicExhausedPollingSystem.monitor "Probability C1_1_1_n1_n2[i][j]" 0
scalar DynamicExhausedPollingSystem.monitor "Probability C1_1_1_n1_n2[i][j]" 0
scalar DynamicExhausedPollingSystem.monitor "Probability C1_1_1_n1_n2[i][j]" 0
scalar DynamicExhausedPollingSystem.monitor "Probability C1_1_1_n1_n2[i][j]" 0
scalar DynamicExhausedPollingSystem.monitor "Probability C1_1_1_n1_n2[i][j]" 0
scalar DynamicExhausedPollingSystem.monitor "Probability C1_1_1_n1_n2[i][j]" 0
scalar DynamicExhausedPollingSystem.monitor "Probability C1_1_1_n1_n2[i][j]" 0
scalar DynamicExhausedPollingSystem.monitor "Probability C1_1_1_n1_n2[i][j]" 0
scalar DynamicExhausedPollingSystem.monitor "Probability C1_1_1_n1_n2[i][j]" 0
scalar DynamicExhausedPollingSystem.monitor "Probability C1_1_1_n1_n2[i][j]" 0
scalar DynamicExhausedPollingSystem.monitor "Probability C1_1_1_n1_n2[i][j]" 0
scalar DynamicExhausedPollingSystem.monitor "Probability C1_1_1_n1_n2[i][j]" 0
scalar DynamicExhausedPollingSystem.monitor "Probability C1_1_1_n1_n2[i][j]" 0
scalar DynamicExhausedPollingSystem.monitor "Probability C1_1_1_n1_n2[i][j]" 0.020366503773529
scalar DynamicExhausedPollingSystem.monitor "Probability C1_1_1_n1_n2[i][j]" 0.00074633339400793
scalar DynamicExhausedPollingSystem.monitor "Probability C1_1_1_n1_n2[i][j]" 5.9769718489695e-05
scalar DynamicExhausedPollingSystem.monitor "Probability C1_1_1_n1_n2[i][j]" 2.3573588100974e-06
scalar DynamicExhausedPollingSystem.monitor "Probability C1_1_1_n1_n2[i][j]" 0
scalar DynamicExhausedPollingSystem.monitor "Probability C1_1_1_n1_n2[i][j]" 5.6835783642246e-07
scalar DynamicExhausedPollingSystem.monitor "Probability C1_1_1_n1_n2[i][j]" 0
scalar DynamicExhausedPollingSystem.monitor "Probability C1_1_1_n1_n2[i][j]" 0
scalar DynamicExhausedPollingSystem.monitor "Probability C1_1_1_n1_n2[i][j]" 0
scalar DynamicExhausedPollingSystem.monitor "Probability C1_1_1_n1_n2[i][j]" 0
scalar DynamicExhausedPollingSystem.monitor "Probability C1_1_1_n1_n2[i][j]" 0
scalar DynamicExhausedPollingSystem.monitor "Probability C1_1_1_n1_n2[i][j]" 0
scalar DynamicExhausedPollingSystem.monitor "Probability C1_1_1_n1_n2[i][j]" 0
scalar DynamicExhausedPollingSystem.monitor "Probability C1_1_1_n1_n2[i][j]" 0
scalar DynamicExhausedPollingSystem.monitor "Probability C1_1_1_n1_n2[i][j]" 0
scalar DynamicExhausedPollingSystem.monitor "Probability C1_1_1_n1_n2[i][j]" 0
scalar DynamicExhausedPollingSystem.monitor "Probability C1_1_1_n1_n2[i][j]" 0
scalar DynamicExhausedPollingSystem.monitor "Probability C1_1_1_n1_n2[i][j]" 0
scalar DynamicExhausedPollingSystem.monitor "Probability C1_1_1_n1_n2[i][j]" 0
scalar DynamicExhausedPollingSystem.monitor "Probability C1_1_1_n1_n2[i][j]" 0
scalar DynamicExhausedPollingSystem.monitor "Probability C1_1_1_n1_n2[i][j]" 0.0066870436617176
scalar DynamicExhausedPollingSystem.monitor "Probability C1_1_1_n1_n2[i][j]" 0.00013381695377336
scalar DynamicExhausedPollingSystem.monitor "Probability C1_1_1_n1_n2[i][j]" 4.3957568282415e-06
scalar DynamicExhausedPollingSystem.monitor "Probability C1_1_1_n1_n2[i][j]" 0
scalar DynamicExhausedPollingSystem.monitor "Probability C1_1_1_n1_n2[i][j]" 0
scalar DynamicExhausedPollingSystem.monitor "Probability C1_1_1_n1_n2[i][j]" 0
scalar DynamicExhausedPollingSystem.monitor "Probability C1_1_1_n1_n2[i][j]" 0
scalar DynamicExhausedPollingSystem.monitor "Probability C1_1_1_n1_n2[i][j]" 0
scalar DynamicExhausedPollingSystem.monitor "Probability C1_1_1_n1_n2[i][j]" 0
scalar DynamicExhausedPollingSystem.monitor "Probability C1_1_1_n1_n2[i][j]" 0
scalar DynamicExhausedPollingSystem.monitor "Probability C1_1_1_n1_n2[i][j]" 0
scalar DynamicExhausedPollingSystem.monitor "Probability C1_1_1_n1_n2[i][j]" 0
scalar DynamicExhausedPollingSystem.monitor "Probability C1_1_1_n1_n2[i][j]" 0
scalar DynamicExhausedPollingSystem.monitor "Probability C1_1_1_n1_n2[i][j]" 0
scalar DynamicExhausedPollingSystem.monitor "Probability C1_1_1_n1_n2[i][j]" 0
scalar DynamicExhausedPollingSystem.monitor "Probability C1_1_1_n1_n2[i][j]" 0
scalar DynamicExhausedPollingSystem.monitor "Probability C1_1_1_n1_n2[i][j]" 0
scalar DynamicExhausedPollingSystem.monitor "Probability C1_1_1_n1_n2[i][j]" 0
scalar DynamicExhausedPollingSystem.monitor "Probability C1_1_1_n1_n2[i][j]" 0
scalar DynamicExhausedPollingSystem.monitor "Probability C1_1_1_n1_n2[i][j]" 0
scalar DynamicExhausedPollingSystem.monitor "Probability C1_1_1_n1_n2[i][j]" 0.0025526796190688
scalar DynamicExhausedPollingSystem.monitor "Probability C1_1_1_n1_n2[i][j]" 4.8176395939665e-05
scalar DynamicExhausedPollingSystem.monitor "Probability C1_1_1_n1_n2[i][j]" 4.3765917790348e-07
scalar DynamicExhausedPollingSystem.monitor "Probability C1_1_1_n1_n2[i][j]" 0
scalar DynamicExhausedPollingSystem.monitor "Probability C1_1_1_n1_n2[i][j]" 0
scalar DynamicExhausedPollingSystem.monitor "Probability C1_1_1_n1_n2[i][j]" 0
scalar DynamicExhausedPollingSystem.monitor "Probability C1_1_1_n1_n2[i][j]" 0
scalar DynamicExhausedPollingSystem.monitor "Probability C1_1_1_n1_n2[i][j]" 0
scalar DynamicExhausedPollingSystem.monitor "Probability C1_1_1_n1_n2[i][j]" 0
scalar DynamicExhausedPollingSystem.monitor "Probability C1_1_1_n1_n2[i][j]" 0
scalar DynamicExhausedPollingSystem.monitor "Probability C1_1_1_n1_n2[i][j]" 0
scalar DynamicExhausedPollingSystem.monitor "Probability C1_1_1_n1_n2[i][j]" 0
scalar DynamicExhausedPollingSystem.monitor "Probability C1_1_1_n1_n2[i][j]" 0
scalar DynamicExhausedPollingSystem.monitor "Probability C1_1_1_n1_n2[i][j]" 0
scalar DynamicExhausedPollingSystem.monitor "Probability C1_1_1_n1_n2[i][j]" 0
scalar DynamicExhausedPollingSystem.monitor "Probability C1_1_1_n1_n2[i][j]" 0
scalar DynamicExhausedPollingSystem.monitor "Probability C1_1_1_n1_n2[i][j]" 0
scalar DynamicExhausedPollingSystem.monitor "Probability C1_1_1_n1_n2[i][j]" 0
scalar DynamicExhausedPollingSystem.monitor "Probability C1_1_1_n1_n2[i][j]" 0
scalar DynamicExhausedPollingSystem.monitor "Probability C1_1_1_n1_n2[i][j]" 0
scalar DynamicExhausedPollingSystem.monitor "Probability C1_1_1_n1_n2[i][j]" 0.00099178115758348
scalar DynamicExhausedPollingSystem.monitor "Probability C1_1_1_n1_n2[i][j]" 1.9055246184877e-05
scalar DynamicExhausedPollingSystem.monitor "Probability C1_1_1_n1_n2[i][j]" 3.0260392355867e-07
scalar DynamicExhausedPollingSystem.monitor "Probability C1_1_1_n1_n2[i][j]" 0
scalar DynamicExhausedPollingSystem.monitor "Probability C1_1_1_n1_n2[i][j]" 0
scalar DynamicExhausedPollingSystem.monitor "Probability C1_1_1_n1_n2[i][j]" 0
scalar DynamicExhausedPollingSystem.monitor "Probability C1_1_1_n1_n2[i][j]" 0
scalar DynamicExhausedPollingSystem.monitor "Probability C1_1_1_n1_n2[i][j]" 0
scalar DynamicExhausedPollingSystem.monitor "Probability C1_1_1_n1_n2[i][j]" 0
scalar DynamicExhausedPollingSystem.monitor "Probability C1_1_1_n1_n2[i][j]" 0
scalar DynamicExhausedPollingSystem.monitor "Probability C1_1_1_n1_n2[i][j]" 0
scalar DynamicExhausedPollingSystem.monitor "Probability C1_1_1_n1_n2[i][j]" 0
scalar DynamicExhausedPollingSystem.monitor "Probability C1_1_1_n1_n2[i][j]" 0
scalar DynamicExhausedPollingSystem.monitor "Probability C1_1_1_n1_n2[i][j]" 0
scalar DynamicExhausedPollingSystem.monitor "Probability C1_1_1_n1_n2[i][j]" 0
scalar DynamicExhausedPollingSystem.monitor "Probability C1_1_1_n1_n2[i][j]" 0
scalar DynamicExhausedPollingSystem.monitor "Probability C1_1_1_n1_n2[i][j]" 0
scalar DynamicExhausedPollingSystem.monitor "Probability C1_1_1_n1_n2[i][j]" 0
scalar DynamicExhausedPollingSystem.monitor "Probability C1_1_1_n1_n2[i][j]" 0
scalar DynamicExhausedPollingSystem.monitor "Probability C1_1_1_n1_n2[i][j]" 0
scalar DynamicExhausedPollingSystem.monitor "Probability C1_1_1_n1_n2[i][j]" 0.00045560213244138
scalar DynamicExhausedPollingSystem.monitor "Probability C1_1_1_n1_n2[i][j]" 1.0300610929396e-05
scalar DynamicExhausedPollingSystem.monitor "Probability C1_1_1_n1_n2[i][j]" 0
scalar DynamicExhausedPollingSystem.monitor "Probability C1_1_1_n1_n2[i][j]" 0
scalar DynamicExhausedPollingSystem.monitor "Probability C1_1_1_n1_n2[i][j]" 0
scalar DynamicExhausedPollingSystem.monitor "Probability C1_1_1_n1_n2[i][j]" 0
scalar DynamicExhausedPollingSystem.monitor "Probability C1_1_1_n1_n2[i][j]" 0
scalar DynamicExhausedPollingSystem.monitor "Probability C1_1_1_n1_n2[i][j]" 0
scalar DynamicExhausedPollingSystem.monitor "Probability C1_1_1_n1_n2[i][j]" 0
scalar DynamicExhausedPollingSystem.monitor "Probability C1_1_1_n1_n2[i][j]" 0
scalar DynamicExhausedPollingSystem.monitor "Probability C1_1_1_n1_n2[i][j]" 0
scalar DynamicExhausedPollingSystem.monitor "Probability C1_1_1_n1_n2[i][j]" 0
scalar DynamicExhausedPollingSystem.monitor "Probability C1_1_1_n1_n2[i][j]" 0
scalar DynamicExhausedPollingSystem.monitor "Probability C1_1_1_n1_n2[i][j]" 0
scalar DynamicExhausedPollingSystem.monitor "Probability C1_1_1_n1_n2[i][j]" 0
scalar DynamicExhausedPollingSystem.monitor "Probability C1_1_1_n1_n2[i][j]" 0
scalar DynamicExhausedPollingSystem.monitor "Probability C1_1_1_n1_n2[i][j]" 0
scalar DynamicExhausedPollingSystem.monitor "Probability C1_1_1_n1_n2[i][j]" 0
scalar DynamicExhausedPollingSystem.monitor "Probability C1_1_1_n1_n2[i][j]" 0
scalar DynamicExhausedPollingSystem.monitor "Probability C1_1_1_n1_n2[i][j]" 0
scalar DynamicExhausedPollingSystem.monitor "Probability C1_1_1_n1_n2[i][j]" 0.00019630500697462
scalar DynamicExhausedPollingSystem.monitor "Probability C1_1_1_n1_n2[i][j]" 6.4948569388907e-06
scalar DynamicExhausedPollingSystem.monitor "Probability C1_1_1_n1_n2[i][j]" 0
scalar DynamicExhausedPollingSystem.monitor "Probability C1_1_1_n1_n2[i][j]" 0
scalar DynamicExhausedPollingSystem.monitor "Probability C1_1_1_n1_n2[i][j]" 0
scalar DynamicExhausedPollingSystem.monitor "Probability C1_1_1_n1_n2[i][j]" 0
scalar DynamicExhausedPollingSystem.monitor "Probability C1_1_1_n1_n2[i][j]" 0
scalar DynamicExhausedPollingSystem.monitor "Probability C1_1_1_n1_n2[i][j]" 0
scalar DynamicExhausedPollingSystem.monitor "Probability C1_1_1_n1_n2[i][j]" 0
scalar DynamicExhausedPollingSystem.monitor "Probability C1_1_1_n1_n2[i][j]" 0
scalar DynamicExhausedPollingSystem.monitor "Probability C1_1_1_n1_n2[i][j]" 0
scalar DynamicExhausedPollingSystem.monitor "Probability C1_1_1_n1_n2[i][j]" 0
scalar DynamicExhausedPollingSystem.monitor "Probability C1_1_1_n1_n2[i][j]" 0
scalar DynamicExhausedPollingSystem.monitor "Probability C1_1_1_n1_n2[i][j]" 0
scalar DynamicExhausedPollingSystem.monitor "Probability C1_1_1_n1_n2[i][j]" 0
scalar DynamicExhausedPollingSystem.monitor "Probability C1_1_1_n1_n2[i][j]" 0
scalar DynamicExhausedPollingSystem.monitor "Probability C1_1_1_n1_n2[i][j]" 0
scalar DynamicExhausedPollingSystem.monitor "Probability C1_1_1_n1_n2[i][j]" 0
scalar DynamicExhausedPollingSystem.monitor "Probability C1_1_1_n1_n2[i][j]" 0
scalar DynamicExhausedPollingSystem.monitor "Probability C1_1_1_n1_n2[i][j]" 0
scalar DynamicExhausedPollingSystem.monitor "Probability C1_1_1_n1_n2[i][j]" 0.00010016142955296
scalar DynamicExhausedPollingSystem.monitor "Probability C1_1_1_n1_n2[i][j]" 1.7832500247984e-06
scalar DynamicExhausedPollingSystem.monitor "Probability C1_1_1_n1_n2[i][j]" 0
scalar DynamicExhausedPollingSystem.monitor "Probability C1_1_1_n1_n2[i][j]" 0
scalar DynamicExhausedPollingSystem.monitor "Probability C1_1_1_n1_n2[i][j]" 0
scalar DynamicExhausedPollingSystem.monitor "Probability C1_1_1_n1_n2[i][j]" 0
scalar DynamicExhausedPollingSystem.monitor "Probability C1_1_1_n1_n2[i][j]" 0
scalar DynamicExhausedPollingSystem.monitor "Probability C1_1_1_n1_n2[i][j]" 0
scalar DynamicExhausedPollingSystem.monitor "Probability C1_1_1_n1_n2[i][j]" 0
scalar DynamicExhausedPollingSystem.monitor "Probability C1_1_1_n1_n2[i][j]" 0
scalar DynamicExhausedPollingSystem.monitor "Probability C1_1_1_n1_n2[i][j]" 0
scalar DynamicExhausedPollingSystem.monitor "Probability C1_1_1_n1_n2[i][j]" 0
scalar DynamicExhausedPollingSystem.monitor "Probability C1_1_1_n1_n2[i][j]" 0
scalar DynamicExhausedPollingSystem.monitor "Probability C1_1_1_n1_n2[i][j]" 0
scalar DynamicExhausedPollingSystem.monitor "Probability C1_1_1_n1_n2[i][j]" 0
scalar DynamicExhausedPollingSystem.monitor "Probability C1_1_1_n1_n2[i][j]" 0
scalar DynamicExhausedPollingSystem.monitor "Probability C1_1_1_n1_n2[i][j]" 0
scalar DynamicExhausedPollingSystem.monitor "Probability C1_1_1_n1_n2[i][j]" 0
scalar DynamicExhausedPollingSystem.monitor "Probability C1_1_1_n1_n2[i][j]" 0
scalar DynamicExhausedPollingSystem.monitor "Probability C1_1_1_n1_n2[i][j]" 0
scalar DynamicExhausedPollingSystem.monitor "Probability C1_1_1_n1_n2[i][j]" 3.1679313296045e-05
scalar DynamicExhausedPollingSystem.monitor "Probability C1_1_1_n1_n2[i][j]" 0
scalar DynamicExhausedPollingSystem.monitor "Probability C1_1_1_n1_n2[i][j]" 0
scalar DynamicExhausedPollingSystem.monitor "Probability C1_1_1_n1_n2[i][j]" 0
scalar DynamicExhausedPollingSystem.monitor "Probability C1_1_1_n1_n2[i][j]" 0
scalar DynamicExhausedPollingSystem.monitor "Probability C1_1_1_n1_n2[i][j]" 0
scalar DynamicExhausedPollingSystem.monitor "Probability C1_1_1_n1_n2[i][j]" 0
scalar DynamicExhausedPollingSystem.monitor "Probability C1_1_1_n1_n2[i][j]" 0
scalar DynamicExhausedPollingSystem.monitor "Probability C1_1_1_n1_n2[i][j]" 0
scalar DynamicExhausedPollingSystem.monitor "Probability C1_1_1_n1_n2[i][j]" 0
scalar DynamicExhausedPollingSystem.monitor "Probability C1_1_1_n1_n2[i][j]" 0
scalar DynamicExhausedPollingSystem.monitor "Probability C1_1_1_n1_n2[i][j]" 0
scalar DynamicExhausedPollingSystem.monitor "Probability C1_1_1_n1_n2[i][j]" 0
scalar DynamicExhausedPollingSystem.monitor "Probability C1_1_1_n1_n2[i][j]" 0
scalar DynamicExhausedPollingSystem.monitor "Probability C1_1_1_n1_n2[i][j]" 0
scalar DynamicExhausedPollingSystem.monitor "Probability C1_1_1_n1_n2[i][j]" 0
scalar DynamicExhausedPollingSystem.monitor "Probability C1_1_1_n1_n2[i][j]" 0
scalar DynamicExhausedPollingSystem.monitor "Probability C1_1_1_n1_n2[i][j]" 0
scalar DynamicExhausedPollingSystem.monitor "Probability C1_1_1_n1_n2[i][j]" 0
scalar DynamicExhausedPollingSystem.monitor "Probability C1_1_1_n1_n2[i][j]" 0
scalar DynamicExhausedPollingSystem.monitor "Probability C1_1_1_n1_n2[i][j]" 1.3929990021112e-05
scalar DynamicExhausedPollingSystem.monitor "Probability C1_1_1_n1_n2[i][j]" 0
scalar DynamicExhausedPollingSystem.monitor "Probability C1_1_1_n1_n2[i][j]" 0
scalar DynamicExhausedPollingSystem.monitor "Probability C1_1_1_n1_n2[i][j]" 0
scalar DynamicExhausedPollingSystem.monitor "Probability C1_1_1_n1_n2[i][j]" 0
scalar DynamicExhausedPollingSystem.monitor "Probability C1_1_1_n1_n2[i][j]" 0
scalar DynamicExhausedPollingSystem.monitor "Probability C1_1_1_n1_n2[i][j]" 0
scalar DynamicExhausedPollingSystem.monitor "Probability C1_1_1_n1_n2[i][j]" 0
scalar DynamicExhausedPollingSystem.monitor "Probability C1_1_1_n1_n2[i][j]" 0
scalar DynamicExhausedPollingSystem.monitor "Probability C1_1_1_n1_n2[i][j]" 0
scalar DynamicExhausedPollingSystem.monitor "Probability C1_1_1_n1_n2[i][j]" 0
scalar DynamicExhausedPollingSystem.monitor "Probability C1_1_1_n1_n2[i][j]" 0
scalar DynamicExhausedPollingSystem.monitor "Probability C1_1_1_n1_n2[i][j]" 0
scalar DynamicExhausedPollingSystem.monitor "Probability C1_1_1_n1_n2[i][j]" 0
scalar DynamicExhausedPollingSystem.monitor "Probability C1_1_1_n1_n2[i][j]" 0
scalar DynamicExhausedPollingSystem.monitor "Probability C1_1_1_n1_n2[i][j]" 0
scalar DynamicExhausedPollingSystem.monitor "Probability C1_1_1_n1_n2[i][j]" 0
scalar DynamicExhausedPollingSystem.monitor "Probability C1_1_1_n1_n2[i][j]" 0
scalar DynamicExhausedPollingSystem.monitor "Probability C1_1_1_n1_n2[i][j]" 0
scalar DynamicExhausedPollingSystem.monitor "Probability C1_1_1_n1_n2[i][j]" 0
scalar DynamicExhausedPollingSystem.monitor "Probability C1_1_1_n1_n2[i][j]" 1.7280455117705e-06
scalar DynamicExhausedPollingSystem.monitor "Probability C1_1_1_n1_n2[i][j]" 0
scalar DynamicExhausedPollingSystem.monitor "Probability C1_1_1_n1_n2[i][j]" 0
scalar DynamicExhausedPollingSystem.monitor "Probability C1_1_1_n1_n2[i][j]" 0
scalar DynamicExhausedPollingSystem.monitor "Probability C1_1_1_n1_n2[i][j]" 0
scalar DynamicExhausedPollingSystem.monitor "Probability C1_1_1_n1_n2[i][j]" 0
scalar DynamicExhausedPollingSystem.monitor "Probability C1_1_1_n1_n2[i][j]" 0
scalar DynamicExhausedPollingSystem.monitor "Probability C1_1_1_n1_n2[i][j]" 0
scalar DynamicExhausedPollingSystem.monitor "Probability C1_1_1_n1_n2[i][j]" 0
scalar DynamicExhausedPollingSystem.monitor "Probability C1_1_1_n1_n2[i][j]" 0
scalar DynamicExhausedPollingSystem.monitor "Probability C1_1_1_n1_n2[i][j]" 0
scalar DynamicExhausedPollingSystem.monitor "Probability C1_1_1_n1_n2[i][j]" 0
scalar DynamicExhausedPollingSystem.monitor "Probability C1_1_1_n1_n2[i][j]" 0
scalar DynamicExhausedPollingSystem.monitor "Probability C1_1_1_n1_n2[i][j]" 0
scalar DynamicExhausedPollingSystem.monitor "Probability C1_1_1_n1_n2[i][j]" 0
scalar DynamicExhausedPollingSystem.monitor "Probability C1_1_1_n1_n2[i][j]" 0
scalar DynamicExhausedPollingSystem.monitor "Probability C1_1_1_n1_n2[i][j]" 0
scalar DynamicExhausedPollingSystem.monitor "Probability C1_1_1_n1_n2[i][j]" 0
scalar DynamicExhausedPollingSystem.monitor "Probability C1_1_1_n1_n2[i][j]" 0
scalar DynamicExhausedPollingSystem.monitor "Probability C1_1_1_n1_n2[i][j]" 0
scalar DynamicExhausedPollingSystem.monitor "Probability C1_1_1_n1_n2[i][j]" 4.0973974541947e-06
scalar DynamicExhausedPollingSystem.monitor "Probability C1_1_1_n1_n2[i][j]" 0
scalar DynamicExhausedPollingSystem.monitor "Probability C1_1_1_n1_n2[i][j]" 0
scalar DynamicExhausedPollingSystem.monitor "Probability C1_1_1_n1_n2[i][j]" 0
scalar DynamicExhausedPollingSystem.monitor "Probability C1_1_1_n1_n2[i][j]" 0
scalar DynamicExhausedPollingSystem.monitor "Probability C1_1_1_n1_n2[i][j]" 0
scalar DynamicExhausedPollingSystem.monitor "Probability C1_1_1_n1_n2[i][j]" 0
scalar DynamicExhausedPollingSystem.monitor "Probability C1_1_1_n1_n2[i][j]" 0
scalar DynamicExhausedPollingSystem.monitor "Probability C1_1_1_n1_n2[i][j]" 0
scalar DynamicExhausedPollingSystem.monitor "Probability C1_1_1_n1_n2[i][j]" 0
scalar DynamicExhausedPollingSystem.monitor "Probability C1_1_1_n1_n2[i][j]" 0
scalar DynamicExhausedPollingSystem.monitor "Probability C1_1_1_n1_n2[i][j]" 0
scalar DynamicExhausedPollingSystem.monitor "Probability C1_1_1_n1_n2[i][j]" 0
scalar DynamicExhausedPollingSystem.monitor "Probability C1_1_1_n1_n2[i][j]" 0
scalar DynamicExhausedPollingSystem.monitor "Probability C1_1_1_n1_n2[i][j]" 0
scalar DynamicExhausedPollingSystem.monitor "Probability C1_1_1_n1_n2[i][j]" 0
scalar DynamicExhausedPollingSystem.monitor "Probability C1_1_1_n1_n2[i][j]" 0
scalar DynamicExhausedPollingSystem.monitor "Probability C1_1_1_n1_n2[i][j]" 0
scalar DynamicExhausedPollingSystem.monitor "Probability C1_1_1_n1_n2[i][j]" 0
scalar DynamicExhausedPollingSystem.monitor "Probability C1_1_1_n1_n2[i][j]" 0
scalar DynamicExhausedPollingSystem.monitor "Probability C1_1_1_n1_n2[i][j]" 3.5815602021687e-06
scalar DynamicExhausedPollingSystem.monitor "Probability C1_1_1_n1_n2[i][j]" 0
scalar DynamicExhausedPollingSystem.monitor "Probability C1_1_1_n1_n2[i][j]" 0
scalar DynamicExhausedPollingSystem.monitor "Probability C1_1_1_n1_n2[i][j]" 0
scalar DynamicExhausedPollingSystem.monitor "Probability C1_1_1_n1_n2[i][j]" 0
scalar DynamicExhausedPollingSystem.monitor "Probability C1_1_1_n1_n2[i][j]" 0
scalar DynamicExhausedPollingSystem.monitor "Probability C1_1_1_n1_n2[i][j]" 0
scalar DynamicExhausedPollingSystem.monitor "Probability C1_1_1_n1_n2[i][j]" 0
scalar DynamicExhausedPollingSystem.monitor "Probability C1_1_1_n1_n2[i][j]" 0
scalar DynamicExhausedPollingSystem.monitor "Probability C1_1_1_n1_n2[i][j]" 0
scalar DynamicExhausedPollingSystem.monitor "Probability C1_1_1_n1_n2[i][j]" 0
scalar DynamicExhausedPollingSystem.monitor "Probability C1_1_1_n1_n2[i][j]" 0
scalar DynamicExhausedPollingSystem.monitor "Probability C1_1_1_n1_n2[i][j]" 0
scalar DynamicExhausedPollingSystem.monitor "Probability C1_1_1_n1_n2[i][j]" 0
scalar DynamicExhausedPollingSystem.monitor "Probability C1_1_1_n1_n2[i][j]" 0
scalar DynamicExhausedPollingSystem.monitor "Probability C1_1_1_n1_n2[i][j]" 0
scalar DynamicExhausedPollingSystem.monitor "Probability C1_1_1_n1_n2[i][j]" 0
scalar DynamicExhausedPollingSystem.monitor "Probability C1_1_1_n1_n2[i][j]" 0
scalar DynamicExhausedPollingSystem.monitor "Probability C1_1_1_n1_n2[i][j]" 0
scalar DynamicExhausedPollingSystem.monitor "Probability C1_1_1_n1_n2[i][j]" 0
scalar DynamicExhausedPollingSystem.monitor "Probability C1_1_1_n1_n2[i][j]" 3.6206502001053e-06
scalar DynamicExhausedPollingSystem.monitor "Probability C1_1_1_n1_n2[i][j]" 0
scalar DynamicExhausedPollingSystem.monitor "Probability C1_1_1_n1_n2[i][j]" 0
scalar DynamicExhausedPollingSystem.monitor "Probability C1_1_1_n1_n2[i][j]" 0
scalar DynamicExhausedPollingSystem.monitor "Probability C1_1_1_n1_n2[i][j]" 0
scalar DynamicExhausedPollingSystem.monitor "Probability C1_1_1_n1_n2[i][j]" 0
scalar DynamicExhausedPollingSystem.monitor "Probability C1_1_1_n1_n2[i][j]" 0
scalar DynamicExhausedPollingSystem.monitor "Probability C1_1_1_n1_n2[i][j]" 0
scalar DynamicExhausedPollingSystem.monitor "Probability C1_1_1_n1_n2[i][j]" 0
scalar DynamicExhausedPollingSystem.monitor "Probability C1_1_1_n1_n2[i][j]" 0
scalar DynamicExhausedPollingSystem.monitor "Probability C1_1_1_n1_n2[i][j]" 0
scalar DynamicExhausedPollingSystem.monitor "Probability C1_1_1_n1_n2[i][j]" 0
scalar DynamicExhausedPollingSystem.monitor "Probability C1_1_1_n1_n2[i][j]" 0
scalar DynamicExhausedPollingSystem.monitor "Probability C1_1_1_n1_n2[i][j]" 0
scalar DynamicExhausedPollingSystem.monitor "Probability C1_1_1_n1_n2[i][j]" 0
scalar DynamicExhausedPollingSystem.monitor "Probability C1_1_1_n1_n2[i][j]" 0
scalar DynamicExhausedPollingSystem.monitor "Probability C1_1_1_n1_n2[i][j]" 0
scalar DynamicExhausedPollingSystem.monitor "Probability C1_1_1_n1_n2[i][j]" 0
scalar DynamicExhausedPollingSystem.monitor "Probability C1_1_1_n1_n2[i][j]" 0
scalar DynamicExhausedPollingSystem.monitor "Probability C1_1_1_n1_n2[i][j]" 0
scalar DynamicExhausedPollingSystem.monitor "Probability C1_1_1_n1_n2[i][j]" 0
scalar DynamicExhausedPollingSystem.monitor "Probability C1_1_1_n1_n2[i][j]" 0
scalar DynamicExhausedPollingSystem.monitor "Probability C1_1_1_n1_n2[i][j]" 0
scalar DynamicExhausedPollingSystem.monitor "Probability C1_1_1_n1_n2[i][j]" 0
scalar DynamicExhausedPollingSystem.monitor "Probability C1_1_1_n1_n2[i][j]" 0
scalar DynamicExhausedPollingSystem.monitor "Probability C1_1_1_n1_n2[i][j]" 0
scalar DynamicExhausedPollingSystem.monitor "Probability C1_1_1_n1_n2[i][j]" 0
scalar DynamicExhausedPollingSystem.monitor "Probability C1_1_1_n1_n2[i][j]" 0
scalar DynamicExhausedPollingSystem.monitor "Probability C1_1_1_n1_n2[i][j]" 0
scalar DynamicExhausedPollingSystem.monitor "Probability C1_1_1_n1_n2[i][j]" 0
scalar DynamicExhausedPollingSystem.monitor "Probability C1_1_1_n1_n2[i][j]" 0
scalar DynamicExhausedPollingSystem.monitor "Probability C1_1_1_n1_n2[i][j]" 0
scalar DynamicExhausedPollingSystem.monitor "Probability C1_1_1_n1_n2[i][j]" 0
scalar DynamicExhausedPollingSystem.monitor "Probability C1_1_1_n1_n2[i][j]" 0
scalar DynamicExhausedPollingSystem.monitor "Probability C1_1_1_n1_n2[i][j]" 0
scalar DynamicExhausedPollingSystem.monitor "Probability C1_1_1_n1_n2[i][j]" 0
scalar DynamicExhausedPollingSystem.monitor "Probability C1_1_1_n1_n2[i][j]" 0
scalar DynamicExhausedPollingSystem.monitor "Probability C1_1_1_n1_n2[i][j]" 0
scalar DynamicExhausedPollingSystem.monitor "Probability C1_1_1_n1_n2[i][j]" 0
scalar DynamicExhausedPollingSystem.monitor "Probability C1_1_1_n1_n2[i][j]" 0
scalar DynamicExhausedPollingSystem.monitor "Probability C1_1_1_n1_n2[i][j]" 0
scalar DynamicExhausedPollingSystem.monitor "Probability C1_1_1_n1_n2[i][j]" 0
scalar DynamicExhausedPollingSystem.monitor "Probability C1_1_1_n1_n2[i][j]" 0
scalar DynamicExhausedPollingSystem.monitor "Probability C1_1_1_n1_n2[i][j]" 0
scalar DynamicExhausedPollingSystem.monitor "Probability C1_1_1_n1_n2[i][j]" 0
scalar DynamicExhausedPollingSystem.monitor "Probability C1_1_1_n1_n2[i][j]" 0
scalar DynamicExhausedPollingSystem.monitor "Probability C1_1_1_n1_n2[i][j]" 0
scalar DynamicExhausedPollingSystem.monitor "Probability C1_1_1_n1_n2[i][j]" 0
scalar DynamicExhausedPollingSystem.monitor "Probability C1_1_1_n1_n2[i][j]" 0
scalar DynamicExhausedPollingSystem.monitor "Probability C1_1_1_n1_n2[i][j]" 0
scalar DynamicExhausedPollingSystem.monitor "Probability C1_1_1_n1_n2[i][j]" 0
scalar DynamicExhausedPollingSystem.monitor "Probability C1_1_1_n1_n2[i][j]" 0
scalar DynamicExhausedPollingSystem.monitor "Probability C1_1_1_n1_n2[i][j]" 0
scalar DynamicExhausedPollingSystem.monitor "Probability C1_1_1_n1_n2[i][j]" 0
scalar DynamicExhausedPollingSystem.monitor "Probability C1_1_1_n1_n2[i][j]" 0
scalar DynamicExhausedPollingSystem.monitor "Probability C1_1_1_n1_n2[i][j]" 0
scalar DynamicExhausedPollingSystem.monitor "Probability C1_1_1_n1_n2[i][j]" 0
scalar DynamicExhausedPollingSystem.monitor "Probability C1_1_1_n1_n2[i][j]" 0
scalar DynamicExhausedPollingSystem.monitor "Probability C1_1_1_n1_n2[i][j]" 0
scalar DynamicExhausedPollingSystem.monitor "Probability C1_1_1_n1_n2[i][j]" 0
scalar DynamicExhausedPollingSystem.monitor "Probability C1_1_1_n1_n2[i][j]" 0
scalar DynamicExhausedPollingSystem.monitor "Probability C1_1_1_n1_n2[i][j]" 0
scalar DynamicExhausedPollingSystem.monitor "Probability C1_1_1_n1_n2[i][j]" 0
scalar DynamicExhausedPollingSystem.monitor "Probability C1_1_1_n1_n2[i][j]" 0
scalar DynamicExhausedPollingSystem.monitor "Probability C1_1_1_n1_n2[i][j]" 0
scalar DynamicExhausedPollingSystem.monitor "Probability C1_1_1_n1_n2[i][j]" 0
scalar DynamicExhausedPollingSystem.monitor "Probability C1_1_1_n1_n2[i][j]" 0
scalar DynamicExhausedPollingSystem.monitor "Probability C1_1_1_n1_n2[i][j]" 0
scalar DynamicExhausedPollingSystem.monitor "Probability C1_1_1_n1_n2[i][j]" 0
scalar DynamicExhausedPollingSystem.monitor "Probability C1_1_1_n1_n2[i][j]" 0
scalar DynamicExhausedPollingSystem.monitor "Probability C1_1_1_n1_n2[i][j]" 0
scalar DynamicExhausedPollingSystem.monitor "Probability C1_1_1_n1_n2[i][j]" 0
scalar DynamicExhausedPollingSystem.monitor "Probability C1_1_1_n1_n2[i][j]" 0
scalar DynamicExhausedPollingSystem.monitor "Probability C1_1_1_n1_n2[i][j]" 0
scalar DynamicExhausedPollingSystem.monitor "Probability C1_1_1_n1_n2[i][j]" 0
scalar DynamicExhausedPollingSystem.monitor "Probability C1_1_1_n1_n2[i][j]" 0
scalar DynamicExhausedPollingSystem.monitor "Probability C1_1_1_n1_n2[i][j]" 0
scalar DynamicExhausedPollingSystem.monitor "Probability C1_1_1_n1_n2[i][j]" 0
scalar DynamicExhausedPollingSystem.monitor "Probability C1_1_1_n1_n2[i][j]" 0
scalar DynamicExhausedPollingSystem.monitor "Probability C1_1_1_n1_n2[i][j]" 0
scalar DynamicExhausedPollingSystem.monitor "Probability C1_1_1_n1_n2[i][j]" 0
scalar DynamicExhausedPollingSystem.monitor "Probability C1_1_1_n1_n2[i][j]" 0
scalar DynamicExhausedPollingSystem.monitor "Probability C1_1_1_n1_n2[i][j]" 0
scalar DynamicExhausedPollingSystem.monitor "Probability C1_1_1_n1_n2[i][j]" 0
scalar DynamicExhausedPollingSystem.monitor "Probability C1_1_1_n1_n2[i][j]" 0
scalar DynamicExhausedPollingSystem.monitor "Probability C1_1_1_n1_n2[i][j]" 0
scalar DynamicExhausedPollingSystem.monitor "Probability C1_1_1_n1_n2[i][j]" 0
scalar DynamicExhausedPollingSystem.monitor "Probability C1_1_1_n1_n2[i][j]" 0
scalar DynamicExhausedPollingSystem.monitor "Probability C1_1_1_n1_n2[i][j]" 0
scalar DynamicExhausedPollingSystem.monitor "Probability C1_1_1_n1_n2[i][j]" 0
scalar DynamicExhausedPollingSystem.monitor "Probability C1_1_1_n1_n2[i][j]" 0
scalar DynamicExhausedPollingSystem.monitor "Probability C1_1_1_n1_n2[i][j]" 0
scalar DynamicExhausedPollingSystem.monitor "Probability C1_1_1_n1_n2[i][j]" 0
scalar DynamicExhausedPollingSystem.monitor "Probability C1_1_1_n1_n2[i][j]" 0
scalar DynamicExhausedPollingSystem.monitor "Probability C1_1_1_n1_n2[i][j]" 0
scalar DynamicExhausedPollingSystem.monitor "Probability C1_1_1_n1_n2[i][j]" 0
scalar DynamicExhausedPollingSystem.monitor "Probability C1_1_1_n1_n2[i][j]" 0
scalar DynamicExhausedPollingSystem.monitor "Probability C1_1_1_n1_n2[i][j]" 0
scalar DynamicExhausedPollingSystem.monitor "Probability C1_1_1_n1_n2[i][j]" 0
scalar DynamicExhausedPollingSystem.monitor "Probability C1_1_1_n1_n2[i][j]" 0
scalar DynamicExhausedPollingSystem.monitor "Probability C1_1_0_n1_n2[i][j]" 10.615243280128
scalar DynamicExhausedPollingSystem.monitor "Probability C1_1_0_n1_n2[i][j]" 0.20277157718159
scalar DynamicExhausedPollingSystem.monitor "Probability C1_1_0_n1_n2[i][j]" 0.0039073987856449
scalar DynamicExhausedPollingSystem.monitor "Probability C1_1_0_n1_n2[i][j]" 8.262635707642e-05
scalar DynamicExhausedPollingSystem.monitor "Probability C1_1_0_n1_n2[i][j]" 7.3166798181573e-07
scalar DynamicExhausedPollingSystem.monitor "Probability C1_1_0_n1_n2[i][j]" 0
scalar DynamicExhausedPollingSystem.monitor "Probability C1_1_0_n1_n2[i][j]" 0
scalar DynamicExhausedPollingSystem.monitor "Probability C1_1_0_n1_n2[i][j]" 0
scalar DynamicExhausedPollingSystem.monitor "Probability C1_1_0_n1_n2[i][j]" 0
scalar DynamicExhausedPollingSystem.monitor "Probability C1_1_0_n1_n2[i][j]" 0
scalar DynamicExhausedPollingSystem.monitor "Probability C1_1_0_n1_n2[i][j]" 0
scalar DynamicExhausedPollingSystem.monitor "Probability C1_1_0_n1_n2[i][j]" 0
scalar DynamicExhausedPollingSystem.monitor "Probability C1_1_0_n1_n2[i][j]" 0
scalar DynamicExhausedPollingSystem.monitor "Probability C1_1_0_n1_n2[i][j]" 0
scalar DynamicExhausedPollingSystem.monitor "Probability C1_1_0_n1_n2[i][j]" 0
scalar DynamicExhausedPollingSystem.monitor "Probability C1_1_0_n1_n2[i][j]" 0
scalar DynamicExhausedPollingSystem.monitor "Probability C1_1_0_n1_n2[i][j]" 0
scalar DynamicExhausedPollingSystem.monitor "Probability C1_1_0_n1_n2[i][j]" 0
scalar DynamicExhausedPollingSystem.monitor "Probability C1_1_0_n1_n2[i][j]" 0
scalar DynamicExhausedPollingSystem.monitor "Probability C1_1_0_n1_n2[i][j]" 0
scalar DynamicExhausedPollingSystem.monitor "Probability C1_1_0_n1_n2[i][j]" 0.72873717879782
scalar DynamicExhausedPollingSystem.monitor "Probability C1_1_0_n1_n2[i][j]" 0.019980482470894
scalar DynamicExhausedPollingSystem.monitor "Probability C1_1_0_n1_n2[i][j]" 0.0004914770379999
scalar DynamicExhausedPollingSystem.monitor "Probability C1_1_0_n1_n2[i][j]" 3.8584806163383e-06
scalar DynamicExhausedPollingSystem.monitor "Probability C1_1_0_n1_n2[i][j]" 0
scalar DynamicExhausedPollingSystem.monitor "Probability C1_1_0_n1_n2[i][j]" 0
scalar DynamicExhausedPollingSystem.monitor "Probability C1_1_0_n1_n2[i][j]" 0
scalar DynamicExhausedPollingSystem.monitor "Probability C1_1_0_n1_n2[i][j]" 0
scalar DynamicExhausedPollingSystem.monitor "Probability C1_1_0_n1_n2[i][j]" 0
scalar DynamicExhausedPollingSystem.monitor "Probability C1_1_0_n1_n2[i][j]" 0
scalar DynamicExhausedPollingSystem.monitor "Probability C1_1_0_n1_n2[i][j]" 0
scalar DynamicExhausedPollingSystem.monitor "Probability C1_1_0_n1_n2[i][j]" 0
scalar DynamicExhausedPollingSystem.monitor "Probability C1_1_0_n1_n2[i][j]" 0
scalar DynamicExhausedPollingSystem.monitor "Probability C1_1_0_n1_n2[i][j]" 0
scalar DynamicExhausedPollingSystem.monitor "Probability C1_1_0_n1_n2[i][j]" 0
scalar DynamicExhausedPollingSystem.monitor "Probability C1_1_0_n1_n2[i][j]" 0
scalar DynamicExhausedPollingSystem.monitor "Probability C1_1_0_n1_n2[i][j]" 0
scalar DynamicExhausedPollingSystem.monitor "Probability C1_1_0_n1_n2[i][j]" 0
scalar DynamicExhausedPollingSystem.monitor "Probability C1_1_0_n1_n2[i][j]" 0
scalar DynamicExhausedPollingSystem.monitor "Probability C1_1_0_n1_n2[i][j]" 0
scalar DynamicExhausedPollingSystem.monitor "Probability C1_1_0_n1_n2[i][j]" 0.071900713392548
scalar DynamicExhausedPollingSystem.monitor "Probability C1_1_0_n1_n2[i][j]" 0.0019899445644086
scalar DynamicExhausedPollingSystem.monitor "Probability C1_1_0_n1_n2[i][j]" 4.6714911442069e-05
scalar DynamicExhausedPollingSystem.monitor "Probability C1_1_0_n1_n2[i][j]" 2.8756538057158e-06
scalar DynamicExhausedPollingSystem.monitor "Probability C1_1_0_n1_n2[i][j]" 0
scalar DynamicExhausedPollingSystem.monitor "Probability C1_1_0_n1_n2[i][j]" 0
scalar DynamicExhausedPollingSystem.monitor "Probability C1_1_0_n1_n2[i][j]" 0
scalar DynamicExhausedPollingSystem.monitor "Probability C1_1_0_n1_n2[i][j]" 0
scalar DynamicExhausedPollingSystem.monitor "Probability C1_1_0_n1_n2[i][j]" 0
scalar DynamicExhausedPollingSystem.monitor "Probability C1_1_0_n1_n2[i][j]" 0
scalar DynamicExhausedPollingSystem.monitor "Probability C1_1_0_n1_n2[i][j]" 0
scalar DynamicExhausedPollingSystem.monitor "Probability C1_1_0_n1_n2[i][j]" 0
scalar DynamicExhausedPollingSystem.monitor "Probability C1_1_0_n1_n2[i][j]" 0
scalar DynamicExhausedPollingSystem.monitor "Probability C1_1_0_n1_n2[i][j]" 0
scalar DynamicExhausedPollingSystem.monitor "Probability C1_1_0_n1_n2[i][j]" 0
scalar DynamicExhausedPollingSystem.monitor "Probability C1_1_0_n1_n2[i][j]" 0
scalar DynamicExhausedPollingSystem.monitor "Probability C1_1_0_n1_n2[i][j]" 0
scalar DynamicExhausedPollingSystem.monitor "Probability C1_1_0_n1_n2[i][j]" 0
scalar DynamicExhausedPollingSystem.monitor "Probability C1_1_0_n1_n2[i][j]" 0
scalar DynamicExhausedPollingSystem.monitor "Probability C1_1_0_n1_n2[i][j]" 0
scalar DynamicExhausedPollingSystem.monitor "Probability C1_1_0_n1_n2[i][j]" 0.016514081393771
scalar DynamicExhausedPollingSystem.monitor "Probability C1_1_0_n1_n2[i][j]" 0.0003503261798178
scalar DynamicExhausedPollingSystem.monitor "Probability C1_1_0_n1_n2[i][j]" 9.768667464792e-06
scalar DynamicExhausedPollingSystem.monitor "Probability C1_1_0_n1_n2[i][j]" 1.1809772304342e-06
scalar DynamicExhausedPollingSystem.monitor "Probability C1_1_0_n1_n2[i][j]" 0
scalar DynamicExhausedPollingSystem.monitor "Probability C1_1_0_n1_n2[i][j]" 0
scalar DynamicExhausedPollingSystem.monitor "Probability C1_1_0_n1_n2[i][j]" 0
scalar DynamicExhausedPollingSystem.monitor "Probability C1_1_0_n1_n2[i][j]" 0
scalar DynamicExhausedPollingSystem.monitor "Probability C1_1_0_n1_n2[i][j]" 0
scalar DynamicExhausedPollingSystem.monitor "Probability C1_1_0_n1_n2[i][j]" 0
scalar DynamicExhausedPollingSystem.monitor "Probability C1_1_0_n1_n2[i][j]" 0
scalar DynamicExhausedPollingSystem.monitor "Probability C1_1_0_n1_n2[i][j]" 0
scalar DynamicExhausedPollingSystem.monitor "Probability C1_1_0_n1_n2[i][j]" 0
scalar DynamicExhausedPollingSystem.monitor "Probability C1_1_0_n1_n2[i][j]" 0
scalar DynamicExhausedPollingSystem.monitor "Probability C1_1_0_n1_n2[i][j]" 0
scalar DynamicExhausedPollingSystem.monitor "Probability C1_1_0_n1_n2[i][j]" 0
scalar DynamicExhausedPollingSystem.monitor "Probability C1_1_0_n1_n2[i][j]" 0
scalar DynamicExhausedPollingSystem.monitor "Probability C1_1_0_n1_n2[i][j]" 0
scalar DynamicExhausedPollingSystem.monitor "Probability C1_1_0_n1_n2[i][j]" 0
scalar DynamicExhausedPollingSystem.monitor "Probability C1_1_0_n1_n2[i][j]" 0
scalar DynamicExhausedPollingSystem.monitor "Probability C1_1_0_n1_n2[i][j]" 0.0056677670916362
scalar DynamicExhausedPollingSystem.monitor "Probability C1_1_0_n1_n2[i][j]" 0.00012291171430762
scalar DynamicExhausedPollingSystem.monitor "Probability C1_1_0_n1_n2[i][j]" 2.4283207500895e-06
scalar DynamicExhausedPollingSystem.monitor "Probability C1_1_0_n1_n2[i][j]" 0
scalar DynamicExhausedPollingSystem.monitor "Probability C1_1_0_n1_n2[i][j]" 0
scalar DynamicExhausedPollingSystem.monitor "Probability C1_1_0_n1_n2[i][j]" 0
scalar DynamicExhausedPollingSystem.monitor "Probability C1_1_0_n1_n2[i][j]" 0
scalar DynamicExhausedPollingSystem.monitor "Probability C1_1_0_n1_n2[i][j]" 0
scalar DynamicExhausedPollingSystem.monitor "Probability C1_1_0_n1_n2[i][j]" 0
scalar DynamicExhausedPollingSystem.monitor "Probability C1_1_0_n1_n2[i][j]" 0
scalar DynamicExhausedPollingSystem.monitor "Probability C1_1_0_n1_n2[i][j]" 0
scalar DynamicExhausedPollingSystem.monitor "Probability C1_1_0_n1_n2[i][j]" 0
scalar DynamicExhausedPollingSystem.monitor "Probability C1_1_0_n1_n2[i][j]" 0
scalar DynamicExhausedPollingSystem.monitor "Probability C1_1_0_n1_n2[i][j]" 0
scalar DynamicExhausedPollingSystem.monitor "Probability C1_1_0_n1_n2[i][j]" 0
scalar DynamicExhausedPollingSystem.monitor "Probability C1_1_0_n1_n2[i][j]" 0
scalar DynamicExhausedPollingSystem.monitor "Probability C1_1_0_n1_n2[i][j]" 0
scalar DynamicExhausedPollingSystem.monitor "Probability C1_1_0_n1_n2[i][j]" 0
scalar DynamicExhausedPollingSystem.monitor "Probability C1_1_0_n1_n2[i][j]" 0
scalar DynamicExhausedPollingSystem.monitor "Probability C1_1_0_n1_n2[i][j]" 0
scalar DynamicExhausedPollingSystem.monitor "Probability C1_1_0_n1_n2[i][j]" 0.0021335523043531
scalar DynamicExhausedPollingSystem.monitor "Probability C1_1_0_n1_n2[i][j]" 3.4688929748645e-05
scalar DynamicExhausedPollingSystem.monitor "Probability C1_1_0_n1_n2[i][j]" 0
scalar DynamicExhausedPollingSystem.monitor "Probability C1_1_0_n1_n2[i][j]" 0
scalar DynamicExhausedPollingSystem.monitor "Probability C1_1_0_n1_n2[i][j]" 0
scalar DynamicExhausedPollingSystem.monitor "Probability C1_1_0_n1_n2[i][j]" 0
scalar DynamicExhausedPollingSystem.monitor "Probability C1_1_0_n1_n2[i][j]" 0
scalar DynamicExhausedPollingSystem.monitor "Probability C1_1_0_n1_n2[i][j]" 0
scalar DynamicExhausedPollingSystem.monitor "Probability C1_1_0_n1_n2[i][j]" 0
scalar DynamicExhausedPollingSystem.monitor "Probability C1_1_0_n1_n2[i][j]" 0
scalar DynamicExhausedPollingSystem.monitor "Probability C1_1_0_n1_n2[i][j]" 0
scalar DynamicExhausedPollingSystem.monitor "Probability C1_1_0_n1_n2[i][j]" 0
scalar DynamicExhausedPollingSystem.monitor "Probability C1_1_0_n1_n2[i][j]" 0
scalar DynamicExhausedPollingSystem.monitor "Probability C1_1_0_n1_n2[i][j]" 0
scalar DynamicExhausedPollingSystem.monitor "Probability C1_1_0_n1_n2[i][j]" 0
scalar DynamicExhausedPollingSystem.monitor "Probability C1_1_0_n1_n2[i][j]" 0
scalar DynamicExhausedPollingSystem.monitor "Probability C1_1_0_n1_n2[i][j]" 0
scalar DynamicExhausedPollingSystem.monitor "Probability C1_1_0_n1_n2[i][j]" 0
scalar DynamicExhausedPollingSystem.monitor "Probability C1_1_0_n1_n2[i][j]" 0
scalar DynamicExhausedPollingSystem.monitor "Probability C1_1_0_n1_n2[i][j]" 0
scalar DynamicExhausedPollingSystem.monitor "Probability C1_1_0_n1_n2[i][j]" 0.00085338881588606
scalar DynamicExhausedPollingSystem.monitor "Probability C1_1_0_n1_n2[i][j]" 2.5636527540011e-05
scalar DynamicExhausedPollingSystem.monitor "Probability C1_1_0_n1_n2[i][j]" 5.8587595743804e-07
scalar DynamicExhausedPollingSystem.monitor "Probability C1_1_0_n1_n2[i][j]" 0
scalar DynamicExhausedPollingSystem.monitor "Probability C1_1_0_n1_n2[i][j]" 0
scalar DynamicExhausedPollingSystem.monitor "Probability C1_1_0_n1_n2[i][j]" 0
scalar DynamicExhausedPollingSystem.monitor "Probability C1_1_0_n1_n2[i][j]" 0
scalar DynamicExhausedPollingSystem.monitor "Probability C1_1_0_n1_n2[i][j]" 0
scalar DynamicExhausedPollingSystem.monitor "Probability C1_1_0_n1_n2[i][j]" 0
scalar DynamicExhausedPollingSystem.monitor "Probability C1_1_0_n1_n2[i][j]" 0
scalar DynamicExhausedPollingSystem.monitor "Probability C1_1_0_n1_n2[i][j]" 0
scalar DynamicExhausedPollingSystem.monitor "Probability C1_1_0_n1_n2[i][j]" 0
scalar DynamicExhausedPollingSystem.monitor "Probability C1_1_0_n1_n2[i][j]" 0
scalar DynamicExhausedPollingSystem.monitor "Probability C1_1_0_n1_n2[i][j]" 0
scalar DynamicExhausedPollingSystem.monitor "Probability C1_1_0_n1_n2[i][j]" 0
scalar DynamicExhausedPollingSystem.monitor "Probability C1_1_0_n1_n2[i][j]" 0
scalar DynamicExhausedPollingSystem.monitor "Probability C1_1_0_n1_n2[i][j]" 0
scalar DynamicExhausedPollingSystem.monitor "Probability C1_1_0_n1_n2[i][j]" 0
scalar DynamicExhausedPollingSystem.monitor "Probability C1_1_0_n1_n2[i][j]" 0
scalar DynamicExhausedPollingSystem.monitor "Probability C1_1_0_n1_n2[i][j]" 0
scalar DynamicExhausedPollingSystem.monitor "Probability C1_1_0_n1_n2[i][j]" 0.00040165865948877
scalar DynamicExhausedPollingSystem.monitor "Probability C1_1_0_n1_n2[i][j]" 9.1766706732379e-06
scalar DynamicExhausedPollingSystem.monitor "Probability C1_1_0_n1_n2[i][j]" 0
scalar DynamicExhausedPollingSystem.monitor "Probability C1_1_0_n1_n2[i][j]" 0
scalar DynamicExhausedPollingSystem.monitor "Probability C1_1_0_n1_n2[i][j]" 0
scalar DynamicExhausedPollingSystem.monitor "Probability C1_1_0_n1_n2[i][j]" 0
scalar DynamicExhausedPollingSystem.monitor "Probability C1_1_0_n1_n2[i][j]" 0
scalar DynamicExhausedPollingSystem.monitor "Probability C1_1_0_n1_n2[i][j]" 0
scalar DynamicExhausedPollingSystem.monitor "Probability C1_1_0_n1_n2[i][j]" 0
scalar DynamicExhausedPollingSystem.monitor "Probability C1_1_0_n1_n2[i][j]" 0
scalar DynamicExhausedPollingSystem.monitor "Probability C1_1_0_n1_n2[i][j]" 0
scalar DynamicExhausedPollingSystem.monitor "Probability C1_1_0_n1_n2[i][j]" 0
scalar DynamicExhausedPollingSystem.monitor "Probability C1_1_0_n1_n2[i][j]" 0
scalar DynamicExhausedPollingSystem.monitor "Probability C1_1_0_n1_n2[i][j]" 0
scalar DynamicExhausedPollingSystem.monitor "Probability C1_1_0_n1_n2[i][j]" 0
scalar DynamicExhausedPollingSystem.monitor "Probability C1_1_0_n1_n2[i][j]" 0
scalar DynamicExhausedPollingSystem.monitor "Probability C1_1_0_n1_n2[i][j]" 0
scalar DynamicExhausedPollingSystem.monitor "Probability C1_1_0_n1_n2[i][j]" 0
scalar DynamicExhausedPollingSystem.monitor "Probability C1_1_0_n1_n2[i][j]" 0
scalar DynamicExhausedPollingSystem.monitor "Probability C1_1_0_n1_n2[i][j]" 0
scalar DynamicExhausedPollingSystem.monitor "Probability C1_1_0_n1_n2[i][j]" 0.00018848363724324
scalar DynamicExhausedPollingSystem.monitor "Probability C1_1_0_n1_n2[i][j]" 3.3842190424019e-06
scalar DynamicExhausedPollingSystem.monitor "Probability C1_1_0_n1_n2[i][j]" 0
scalar DynamicExhausedPollingSystem.monitor "Probability C1_1_0_n1_n2[i][j]" 0
scalar DynamicExhausedPollingSystem.monitor "Probability C1_1_0_n1_n2[i][j]" 0
scalar DynamicExhausedPollingSystem.monitor "Probability C1_1_0_n1_n2[i][j]" 0
scalar DynamicExhausedPollingSystem.monitor "Probability C1_1_0_n1_n2[i][j]" 0
scalar DynamicExhausedPollingSystem.monitor "Probability C1_1_0_n1_n2[i][j]" 0
scalar DynamicExhausedPollingSystem.monitor "Probability C1_1_0_n1_n2[i][j]" 0
scalar DynamicExhausedPollingSystem.monitor "Probability C1_1_0_n1_n2[i][j]" 0
scalar DynamicExhausedPollingSystem.monitor "Probability C1_1_0_n1_n2[i][j]" 0
scalar DynamicExhausedPollingSystem.monitor "Probability C1_1_0_n1_n2[i][j]" 0
scalar DynamicExhausedPollingSystem.monitor "Probability C1_1_0_n1_n2[i][j]" 0
scalar DynamicExhausedPollingSystem.monitor "Probability C1_1_0_n1_n2[i][j]" 0
scalar DynamicExhausedPollingSystem.monitor "Probability C1_1_0_n1_n2[i][j]" 0
scalar DynamicExhausedPollingSystem.monitor "Probability C1_1_0_n1_n2[i][j]" 0
scalar DynamicExhausedPollingSystem.monitor "Probability C1_1_0_n1_n2[i][j]" 0
scalar DynamicExhausedPollingSystem.monitor "Probability C1_1_0_n1_n2[i][j]" 0
scalar DynamicExhausedPollingSystem.monitor "Probability C1_1_0_n1_n2[i][j]" 0
scalar DynamicExhausedPollingSystem.monitor "Probability C1_1_0_n1_n2[i][j]" 0
scalar DynamicExhausedPollingSystem.monitor "Probability C1_1_0_n1_n2[i][j]" 7.228862998195e-05
scalar DynamicExhausedPollingSystem.monitor "Probability C1_1_0_n1_n2[i][j]" 1.5958630376925e-07
scalar DynamicExhausedPollingSystem.monitor "Probability C1_1_0_n1_n2[i][j]" 0
scalar DynamicExhausedPollingSystem.monitor "Probability C1_1_0_n1_n2[i][j]" 0
scalar DynamicExhausedPollingSystem.monitor "Probability C1_1_0_n1_n2[i][j]" 0
scalar DynamicExhausedPollingSystem.monitor "Probability C1_1_0_n1_n2[i][j]" 0
scalar DynamicExhausedPollingSystem.monitor "Probability C1_1_0_n1_n2[i][j]" 0
scalar DynamicExhausedPollingSystem.monitor "Probability C1_1_0_n1_n2[i][j]" 0
scalar DynamicExhausedPollingSystem.monitor "Probability C1_1_0_n1_n2[i][j]" 0
scalar DynamicExhausedPollingSystem.monitor "Probability C1_1_0_n1_n2[i][j]" 0
scalar DynamicExhausedPollingSystem.monitor "Probability C1_1_0_n1_n2[i][j]" 0
scalar DynamicExhausedPollingSystem.monitor "Probability C1_1_0_n1_n2[i][j]" 0
scalar DynamicExhausedPollingSystem.monitor "Probability C1_1_0_n1_n2[i][j]" 0
scalar DynamicExhausedPollingSystem.monitor "Probability C1_1_0_n1_n2[i][j]" 0
scalar DynamicExhausedPollingSystem.monitor "Probability C1_1_0_n1_n2[i][j]" 0
scalar DynamicExhausedPollingSystem.monitor "Probability C1_1_0_n1_n2[i][j]" 0
scalar DynamicExhausedPollingSystem.monitor "Probability C1_1_0_n1_n2[i][j]" 0
scalar DynamicExhausedPollingSystem.monitor "Probability C1_1_0_n1_n2[i][j]" 0
scalar DynamicExhausedPollingSystem.monitor "Probability C1_1_0_n1_n2[i][j]" 0
scalar DynamicExhausedPollingSystem.monitor "Probability C1_1_0_n1_n2[i][j]" 0
scalar DynamicExhausedPollingSystem.monitor "Probability C1_1_0_n1_n2[i][j]" 3.4285497861696e-05
scalar DynamicExhausedPollingSystem.monitor "Probability C1_1_0_n1_n2[i][j]" 0
scalar DynamicExhausedPollingSystem.monitor "Probability C1_1_0_n1_n2[i][j]" 0
scalar DynamicExhausedPollingSystem.monitor "Probability C1_1_0_n1_n2[i][j]" 0
scalar DynamicExhausedPollingSystem.monitor "Probability C1_1_0_n1_n2[i][j]" 0
scalar DynamicExhausedPollingSystem.monitor "Probability C1_1_0_n1_n2[i][j]" 0
scalar DynamicExhausedPollingSystem.monitor "Probability C1_1_0_n1_n2[i][j]" 0
scalar DynamicExhausedPollingSystem.monitor "Probability C1_1_0_n1_n2[i][j]" 0
scalar DynamicExhausedPollingSystem.monitor "Probability C1_1_0_n1_n2[i][j]" 0
scalar DynamicExhausedPollingSystem.monitor "Probability C1_1_0_n1_n2[i][j]" 0
scalar DynamicExhausedPollingSystem.monitor "Probability C1_1_0_n1_n2[i][j]" 0
scalar DynamicExhausedPollingSystem.monitor "Probability C1_1_0_n1_n2[i][j]" 0
scalar DynamicExhausedPollingSystem.monitor "Probability C1_1_0_n1_n2[i][j]" 0
scalar DynamicExhausedPollingSystem.monitor "Probability C1_1_0_n1_n2[i][j]" 0
scalar DynamicExhausedPollingSystem.monitor "Probability C1_1_0_n1_n2[i][j]" 0
scalar DynamicExhausedPollingSystem.monitor "Probability C1_1_0_n1_n2[i][j]" 0
scalar DynamicExhausedPollingSystem.monitor "Probability C1_1_0_n1_n2[i][j]" 0
scalar DynamicExhausedPollingSystem.monitor "Probability C1_1_0_n1_n2[i][j]" 0
scalar DynamicExhausedPollingSystem.monitor "Probability C1_1_0_n1_n2[i][j]" 0
scalar DynamicExhausedPollingSystem.monitor "Probability C1_1_0_n1_n2[i][j]" 0
scalar DynamicExhausedPollingSystem.monitor "Probability C1_1_0_n1_n2[i][j]" 1.7088043462741e-05
scalar DynamicExhausedPollingSystem.monitor "Probability C1_1_0_n1_n2[i][j]" 0
scalar DynamicExhausedPollingSystem.monitor "Probability C1_1_0_n1_n2[i][j]" 0
scalar DynamicExhausedPollingSystem.monitor "Probability C1_1_0_n1_n2[i][j]" 0
scalar DynamicExhausedPollingSystem.monitor "Probability C1_1_0_n1_n2[i][j]" 0
scalar DynamicExhausedPollingSystem.monitor "Probability C1_1_0_n1_n2[i][j]" 0
scalar DynamicExhausedPollingSystem.monitor "Probability C1_1_0_n1_n2[i][j]" 0
scalar DynamicExhausedPollingSystem.monitor "Probability C1_1_0_n1_n2[i][j]" 0
scalar DynamicExhausedPollingSystem.monitor "Probability C1_1_0_n1_n2[i][j]" 0
scalar DynamicExhausedPollingSystem.monitor "Probability C1_1_0_n1_n2[i][j]" 0
scalar DynamicExhausedPollingSystem.monitor "Probability C1_1_0_n1_n2[i][j]" 0
scalar DynamicExhausedPollingSystem.monitor "Probability C1_1_0_n1_n2[i][j]" 0
scalar DynamicExhausedPollingSystem.monitor "Probability C1_1_0_n1_n2[i][j]" 0
scalar DynamicExhausedPollingSystem.monitor "Probability C1_1_0_n1_n2[i][j]" 0
scalar DynamicExhausedPollingSystem.monitor "Probability C1_1_0_n1_n2[i][j]" 0
scalar DynamicExhausedPollingSystem.monitor "Probability C1_1_0_n1_n2[i][j]" 0
scalar DynamicExhausedPollingSystem.monitor "Probability C1_1_0_n1_n2[i][j]" 0
scalar DynamicExhausedPollingSystem.monitor "Probability C1_1_0_n1_n2[i][j]" 0
scalar DynamicExhausedPollingSystem.monitor "Probability C1_1_0_n1_n2[i][j]" 0
scalar DynamicExhausedPollingSystem.monitor "Probability C1_1_0_n1_n2[i][j]" 0
scalar DynamicExhausedPollingSystem.monitor "Probability C1_1_0_n1_n2[i][j]" 5.9791391120218e-06
scalar DynamicExhausedPollingSystem.monitor "Probability C1_1_0_n1_n2[i][j]" 0
scalar DynamicExhausedPollingSystem.monitor "Probability C1_1_0_n1_n2[i][j]" 0
scalar DynamicExhausedPollingSystem.monitor "Probability C1_1_0_n1_n2[i][j]" 0
scalar DynamicExhausedPollingSystem.monitor "Probability C1_1_0_n1_n2[i][j]" 0
scalar DynamicExhausedPollingSystem.monitor "Probability C1_1_0_n1_n2[i][j]" 0
scalar DynamicExhausedPollingSystem.monitor "Probability C1_1_0_n1_n2[i][j]" 0
scalar DynamicExhausedPollingSystem.monitor "Probability C1_1_0_n1_n2[i][j]" 0
scalar DynamicExhausedPollingSystem.monitor "Probability C1_1_0_n1_n2[i][j]" 0
scalar DynamicExhausedPollingSystem.monitor "Probability C1_1_0_n1_n2[i][j]" 0
scalar DynamicExhausedPollingSystem.monitor "Probability C1_1_0_n1_n2[i][j]" 0
scalar DynamicExhausedPollingSystem.monitor "Probability C1_1_0_n1_n2[i][j]" 0
scalar DynamicExhausedPollingSystem.monitor "Probability C1_1_0_n1_n2[i][j]" 0
scalar DynamicExhausedPollingSystem.monitor "Probability C1_1_0_n1_n2[i][j]" 0
scalar DynamicExhausedPollingSystem.monitor "Probability C1_1_0_n1_n2[i][j]" 0
scalar DynamicExhausedPollingSystem.monitor "Probability C1_1_0_n1_n2[i][j]" 0
scalar DynamicExhausedPollingSystem.monitor "Probability C1_1_0_n1_n2[i][j]" 0
scalar DynamicExhausedPollingSystem.monitor "Probability C1_1_0_n1_n2[i][j]" 0
scalar DynamicExhausedPollingSystem.monitor "Probability C1_1_0_n1_n2[i][j]" 0
scalar DynamicExhausedPollingSystem.monitor "Probability C1_1_0_n1_n2[i][j]" 0
scalar DynamicExhausedPollingSystem.monitor "Probability C1_1_0_n1_n2[i][j]" 1.5780071568645e-06
scalar DynamicExhausedPollingSystem.monitor "Probability C1_1_0_n1_n2[i][j]" 8.838572917461e-07
scalar DynamicExhausedPollingSystem.monitor "Probability C1_1_0_n1_n2[i][j]" 0
scalar DynamicExhausedPollingSystem.monitor "Probability C1_1_0_n1_n2[i][j]" 0
scalar DynamicExhausedPollingSystem.monitor "Probability C1_1_0_n1_n2[i][j]" 0
scalar DynamicExhausedPollingSystem.monitor "Probability C1_1_0_n1_n2[i][j]" 0
scalar DynamicExhausedPollingSystem.monitor "Probability C1_1_0_n1_n2[i][j]" 0
scalar DynamicExhausedPollingSystem.monitor "Probability C1_1_0_n1_n2[i][j]" 0
scalar DynamicExhausedPollingSystem.monitor "Probability C1_1_0_n1_n2[i][j]" 0
scalar DynamicExhausedPollingSystem.monitor "Probability C1_1_0_n1_n2[i][j]" 0
scalar DynamicExhausedPollingSystem.monitor "Probability C1_1_0_n1_n2[i][j]" 0
scalar DynamicExhausedPollingSystem.monitor "Probability C1_1_0_n1_n2[i][j]" 0
scalar DynamicExhausedPollingSystem.monitor "Probability C1_1_0_n1_n2[i][j]" 0
scalar DynamicExhausedPollingSystem.monitor "Probability C1_1_0_n1_n2[i][j]" 0
scalar DynamicExhausedPollingSystem.monitor "Probability C1_1_0_n1_n2[i][j]" 0
scalar DynamicExhausedPollingSystem.monitor "Probability C1_1_0_n1_n2[i][j]" 0
scalar DynamicExhausedPollingSystem.monitor "Probability C1_1_0_n1_n2[i][j]" 0
scalar DynamicExhausedPollingSystem.monitor "Probability C1_1_0_n1_n2[i][j]" 0
scalar DynamicExhausedPollingSystem.monitor "Probability C1_1_0_n1_n2[i][j]" 0
scalar DynamicExhausedPollingSystem.monitor "Probability C1_1_0_n1_n2[i][j]" 0
scalar DynamicExhausedPollingSystem.monitor "Probability C1_1_0_n1_n2[i][j]" 1.5566398008026e-06
scalar DynamicExhausedPollingSystem.monitor "Probability C1_1_0_n1_n2[i][j]" 0
scalar DynamicExhausedPollingSystem.monitor "Probability C1_1_0_n1_n2[i][j]" 0
scalar DynamicExhausedPollingSystem.monitor "Probability C1_1_0_n1_n2[i][j]" 0
scalar DynamicExhausedPollingSystem.monitor "Probability C1_1_0_n1_n2[i][j]" 0
scalar DynamicExhausedPollingSystem.monitor "Probability C1_1_0_n1_n2[i][j]" 0
scalar DynamicExhausedPollingSystem.monitor "Probability C1_1_0_n1_n2[i][j]" 0
scalar DynamicExhausedPollingSystem.monitor "Probability C1_1_0_n1_n2[i][j]" 0
scalar DynamicExhausedPollingSystem.monitor "Probability C1_1_0_n1_n2[i][j]" 0
scalar DynamicExhausedPollingSystem.monitor "Probability C1_1_0_n1_n2[i][j]" 0
scalar DynamicExhausedPollingSystem.monitor "Probability C1_1_0_n1_n2[i][j]" 0
scalar DynamicExhausedPollingSystem.monitor "Probability C1_1_0_n1_n2[i][j]" 0
scalar DynamicExhausedPollingSystem.monitor "Probability C1_1_0_n1_n2[i][j]" 0
scalar DynamicExhausedPollingSystem.monitor "Probability C1_1_0_n1_n2[i][j]" 0
scalar DynamicExhausedPollingSystem.monitor "Probability C1_1_0_n1_n2[i][j]" 0
scalar DynamicExhausedPollingSystem.monitor "Probability C1_1_0_n1_n2[i][j]" 0
scalar DynamicExhausedPollingSystem.monitor "Probability C1_1_0_n1_n2[i][j]" 0
scalar DynamicExhausedPollingSystem.monitor "Probability C1_1_0_n1_n2[i][j]" 0
scalar DynamicExhausedPollingSystem.monitor "Probability C1_1_0_n1_n2[i][j]" 0
scalar DynamicExhausedPollingSystem.monitor "Probability C1_1_0_n1_n2[i][j]" 0
scalar DynamicExhausedPollingSystem.monitor "Probability C1_1_0_n1_n2[i][j]" 3.3494017707566e-08
scalar DynamicExhausedPollingSystem.monitor "Probability C1_1_0_n1_n2[i][j]" 0
scalar DynamicExhausedPollingSystem.monitor "Probability C1_1_0_n1_n2[i][j]" 0
scalar DynamicExhausedPollingSystem.monitor "Probability C1_1_0_n1_n2[i][j]" 0
scalar DynamicExhausedPollingSystem.monitor "Probability C1_1_0_n1_n2[i][j]" 0
scalar DynamicExhausedPollingSystem.monitor "Probability C1_1_0_n1_n2[i][j]" 0
scalar DynamicExhausedPollingSystem.monitor "Probability C1_1_0_n1_n2[i][j]" 0
scalar DynamicExhausedPollingSystem.monitor "Probability C1_1_0_n1_n2[i][j]" 0
scalar DynamicExhausedPollingSystem.monitor "Probability C1_1_0_n1_n2[i][j]" 0
scalar DynamicExhausedPollingSystem.monitor "Probability C1_1_0_n1_n2[i][j]" 0
scalar DynamicExhausedPollingSystem.monitor "Probability C1_1_0_n1_n2[i][j]" 0
scalar DynamicExhausedPollingSystem.monitor "Probability C1_1_0_n1_n2[i][j]" 0
scalar DynamicExhausedPollingSystem.monitor "Probability C1_1_0_n1_n2[i][j]" 0
scalar DynamicExhausedPollingSystem.monitor "Probability C1_1_0_n1_n2[i][j]" 0
scalar DynamicExhausedPollingSystem.monitor "Probability C1_1_0_n1_n2[i][j]" 0
scalar DynamicExhausedPollingSystem.monitor "Probability C1_1_0_n1_n2[i][j]" 0
scalar DynamicExhausedPollingSystem.monitor "Probability C1_1_0_n1_n2[i][j]" 0
scalar DynamicExhausedPollingSystem.monitor "Probability C1_1_0_n1_n2[i][j]" 0
scalar DynamicExhausedPollingSystem.monitor "Probability C1_1_0_n1_n2[i][j]" 0
scalar DynamicExhausedPollingSystem.monitor "Probability C1_1_0_n1_n2[i][j]" 0
scalar DynamicExhausedPollingSystem.monitor "Probability C1_1_0_n1_n2[i][j]" 2.0766636537932e-06
scalar DynamicExhausedPollingSystem.monitor "Probability C1_1_0_n1_n2[i][j]" 0
scalar DynamicExhausedPollingSystem.monitor "Probability C1_1_0_n1_n2[i][j]" 0
scalar DynamicExhausedPollingSystem.monitor "Probability C1_1_0_n1_n2[i][j]" 0
scalar DynamicExhausedPollingSystem.monitor "Probability C1_1_0_n1_n2[i][j]" 0
scalar DynamicExhausedPollingSystem.monitor "Probability C1_1_0_n1_n2[i][j]" 0
scalar DynamicExhausedPollingSystem.monitor "Probability C1_1_0_n1_n2[i][j]" 0
scalar DynamicExhausedPollingSystem.monitor "Probability C1_1_0_n1_n2[i][j]" 0
scalar DynamicExhausedPollingSystem.monitor "Probability C1_1_0_n1_n2[i][j]" 0
scalar DynamicExhausedPollingSystem.monitor "Probability C1_1_0_n1_n2[i][j]" 0
scalar DynamicExhausedPollingSystem.monitor "Probability C1_1_0_n1_n2[i][j]" 0
scalar DynamicExhausedPollingSystem.monitor "Probability C1_1_0_n1_n2[i][j]" 0
scalar DynamicExhausedPollingSystem.monitor "Probability C1_1_0_n1_n2[i][j]" 0
scalar DynamicExhausedPollingSystem.monitor "Probability C1_1_0_n1_n2[i][j]" 0
scalar DynamicExhausedPollingSystem.monitor "Probability C1_1_0_n1_n2[i][j]" 0
scalar DynamicExhausedPollingSystem.monitor "Probability C1_1_0_n1_n2[i][j]" 0
scalar DynamicExhausedPollingSystem.monitor "Probability C1_1_0_n1_n2[i][j]" 0
scalar DynamicExhausedPollingSystem.monitor "Probability C1_1_0_n1_n2[i][j]" 0
scalar DynamicExhausedPollingSystem.monitor "Probability C1_1_0_n1_n2[i][j]" 0
scalar DynamicExhausedPollingSystem.monitor "Probability C1_1_0_n1_n2[i][j]" 0
scalar DynamicExhausedPollingSystem.monitor "Probability C1_1_0_n1_n2[i][j]" 0
scalar DynamicExhausedPollingSystem.monitor "Probability C1_1_0_n1_n2[i][j]" 0
scalar DynamicExhausedPollingSystem.monitor "Probability C1_1_0_n1_n2[i][j]" 0
scalar DynamicExhausedPollingSystem.monitor "Probability C1_1_0_n1_n2[i][j]" 0
scalar DynamicExhausedPollingSystem.monitor "Probability C1_1_0_n1_n2[i][j]" 0
scalar DynamicExhausedPollingSystem.monitor "Probability C1_1_0_n1_n2[i][j]" 0
scalar DynamicExhausedPollingSystem.monitor "Probability C1_1_0_n1_n2[i][j]" 0
scalar DynamicExhausedPollingSystem.monitor "Probability C1_1_0_n1_n2[i][j]" 0
scalar DynamicExhausedPollingSystem.monitor "Probability C1_1_0_n1_n2[i][j]" 0
scalar DynamicExhausedPollingSystem.monitor "Probability C1_1_0_n1_n2[i][j]" 0
scalar DynamicExhausedPollingSystem.monitor "Probability C1_1_0_n1_n2[i][j]" 0
scalar DynamicExhausedPollingSystem.monitor "Probability C1_1_0_n1_n2[i][j]" 0
scalar DynamicExhausedPollingSystem.monitor "Probability C1_1_0_n1_n2[i][j]" 0
scalar DynamicExhausedPollingSystem.monitor "Probability C1_1_0_n1_n2[i][j]" 0
scalar DynamicExhausedPollingSystem.monitor "Probability C1_1_0_n1_n2[i][j]" 0
scalar DynamicExhausedPollingSystem.monitor "Probability C1_1_0_n1_n2[i][j]" 0
scalar DynamicExhausedPollingSystem.monitor "Probability C1_1_0_n1_n2[i][j]" 0
scalar DynamicExhausedPollingSystem.monitor "Probability C1_1_0_n1_n2[i][j]" 0
scalar DynamicExhausedPollingSystem.monitor "Probability C1_1_0_n1_n2[i][j]" 0
scalar DynamicExhausedPollingSystem.monitor "Probability C1_1_0_n1_n2[i][j]" 0
scalar DynamicExhausedPollingSystem.monitor "Probability C1_1_0_n1_n2[i][j]" 0
scalar DynamicExhausedPollingSystem.monitor "Probability C1_1_0_n1_n2[i][j]" 0
scalar DynamicExhausedPollingSystem.monitor "Probability C1_1_0_n1_n2[i][j]" 0
scalar DynamicExhausedPollingSystem.monitor "Probability C1_1_0_n1_n2[i][j]" 0
scalar DynamicExhausedPollingSystem.monitor "Probability C1_1_0_n1_n2[i][j]" 0
scalar DynamicExhausedPollingSystem.monitor "Probability C1_1_0_n1_n2[i][j]" 0
scalar DynamicExhausedPollingSystem.monitor "Probability C1_1_0_n1_n2[i][j]" 0
scalar DynamicExhausedPollingSystem.monitor "Probability C1_1_0_n1_n2[i][j]" 0
scalar DynamicExhausedPollingSystem.monitor "Probability C1_1_0_n1_n2[i][j]" 0
scalar DynamicExhausedPollingSystem.monitor "Probability C1_1_0_n1_n2[i][j]" 0
scalar DynamicExhausedPollingSystem.monitor "Probability C1_1_0_n1_n2[i][j]" 0
scalar DynamicExhausedPollingSystem.monitor "Probability C1_1_0_n1_n2[i][j]" 0
scalar DynamicExhausedPollingSystem.monitor "Probability C1_1_0_n1_n2[i][j]" 0
scalar DynamicExhausedPollingSystem.monitor "Probability C1_1_0_n1_n2[i][j]" 0
scalar DynamicExhausedPollingSystem.monitor "Probability C1_1_0_n1_n2[i][j]" 0
scalar DynamicExhausedPollingSystem.monitor "Probability C1_1_0_n1_n2[i][j]" 0
scalar DynamicExhausedPollingSystem.monitor "Probability C1_1_0_n1_n2[i][j]" 0
scalar DynamicExhausedPollingSystem.monitor "Probability C1_1_0_n1_n2[i][j]" 0
scalar DynamicExhausedPollingSystem.monitor "Probability C1_1_0_n1_n2[i][j]" 0
scalar DynamicExhausedPollingSystem.monitor "Probability C1_1_0_n1_n2[i][j]" 0
scalar DynamicExhausedPollingSystem.monitor "Probability C1_1_0_n1_n2[i][j]" 5.4263709796709e-07
scalar DynamicExhausedPollingSystem.monitor "Probability C1_1_0_n1_n2[i][j]" 0
scalar DynamicExhausedPollingSystem.monitor "Probability C1_1_0_n1_n2[i][j]" 0
scalar DynamicExhausedPollingSystem.monitor "Probability C1_1_0_n1_n2[i][j]" 0
scalar DynamicExhausedPollingSystem.monitor "Probability C1_1_0_n1_n2[i][j]" 0
scalar DynamicExhausedPollingSystem.monitor "Probability C1_1_0_n1_n2[i][j]" 0
scalar DynamicExhausedPollingSystem.monitor "Probability C1_1_0_n1_n2[i][j]" 0
scalar DynamicExhausedPollingSystem.monitor "Probability C1_1_0_n1_n2[i][j]" 0
scalar DynamicExhausedPollingSystem.monitor "Probability C1_1_0_n1_n2[i][j]" 0
scalar DynamicExhausedPollingSystem.monitor "Probability C1_1_0_n1_n2[i][j]" 0
scalar DynamicExhausedPollingSystem.monitor "Probability C1_1_0_n1_n2[i][j]" 0
scalar DynamicExhausedPollingSystem.monitor "Probability C1_1_0_n1_n2[i][j]" 0
scalar DynamicExhausedPollingSystem.monitor "Probability C1_1_0_n1_n2[i][j]" 0
scalar DynamicExhausedPollingSystem.monitor "Probability C1_1_0_n1_n2[i][j]" 0
scalar DynamicExhausedPollingSystem.monitor "Probability C1_1_0_n1_n2[i][j]" 0
scalar DynamicExhausedPollingSystem.monitor "Probability C1_1_0_n1_n2[i][j]" 0
scalar DynamicExhausedPollingSystem.monitor "Probability C1_1_0_n1_n2[i][j]" 0
scalar DynamicExhausedPollingSystem.monitor "Probability C1_1_0_n1_n2[i][j]" 0
scalar DynamicExhausedPollingSystem.monitor "Probability C1_1_0_n1_n2[i][j]" 0
scalar DynamicExhausedPollingSystem.monitor "Probability C1_1_0_n1_n2[i][j]" 0
scalar DynamicExhausedPollingSystem.monitor "Probability C2_1_1_n1_n2[i][j]" 11.14897327536
scalar DynamicExhausedPollingSystem.monitor "Probability C2_1_1_n1_n2[i][j]" 0.58739001736454
scalar DynamicExhausedPollingSystem.monitor "Probability C2_1_1_n1_n2[i][j]" 0.064714355519343
scalar DynamicExhausedPollingSystem.monitor "Probability C2_1_1_n1_n2[i][j]" 0.016643200065981
scalar DynamicExhausedPollingSystem.monitor "Probability C2_1_1_n1_n2[i][j]" 0.0053918598845776
scalar DynamicExhausedPollingSystem.monitor "Probability C2_1_1_n1_n2[i][j]" 0.0020103386183714
scalar DynamicExhausedPollingSystem.monitor "Probability C2_1_1_n1_n2[i][j]" 0.00080282636841286
scalar DynamicExhausedPollingSystem.monitor "Probability C2_1_1_n1_n2[i][j]" 0.00034323589745203
scalar DynamicExhausedPollingSystem.monitor "Probability C2_1_1_n1_n2[i][j]" 0.00013389896889527
scalar DynamicExhausedPollingSystem.monitor "Probability C2_1_1_n1_n2[i][j]" 5.5445768395275e-05
scalar DynamicExhausedPollingSystem.monitor "Probability C2_1_1_n1_n2[i][j]" 2.2150352385694e-05
scalar DynamicExhausedPollingSystem.monitor "Probability C2_1_1_n1_n2[i][j]" 8.305008855723e-06
scalar DynamicExhausedPollingSystem.monitor "Probability C2_1_1_n1_n2[i][j]" 2.4469898946096e-06
scalar DynamicExhausedPollingSystem.monitor "Probability C2_1_1_n1_n2[i][j]" 6.7790509213302e-06
scalar DynamicExhausedPollingSystem.monitor "Probability C2_1_1_n1_n2[i][j]" 1.5925977196311e-07
scalar DynamicExhausedPollingSystem.monitor "Probability C2_1_1_n1_n2[i][j]" 0
scalar DynamicExhausedPollingSystem.monitor "Probability C2_1_1_n1_n2[i][j]" 0
scalar DynamicExhausedPollingSystem.monitor "Probability C2_1_1_n1_n2[i][j]" 0
scalar DynamicExhausedPollingSystem.monitor "Probability C2_1_1_n1_n2[i][j]" 0
scalar DynamicExhausedPollingSystem.monitor "Probability C2_1_1_n1_n2[i][j]" 0
scalar DynamicExhausedPollingSystem.monitor "Probability C2_1_1_n1_n2[i][j]" 0.44731024823758
scalar DynamicExhausedPollingSystem.monitor "Probability C2_1_1_n1_n2[i][j]" 0.025389712003792
scalar DynamicExhausedPollingSystem.monitor "Probability C2_1_1_n1_n2[i][j]" 0.002328307764885
scalar DynamicExhausedPollingSystem.monitor "Probability C2_1_1_n1_n2[i][j]" 0.00053607794487614
scalar DynamicExhausedPollingSystem.monitor "Probability C2_1_1_n1_n2[i][j]" 0.00016458543664659
scalar DynamicExhausedPollingSystem.monitor "Probability C2_1_1_n1_n2[i][j]" 6.0884063717334e-05
scalar DynamicExhausedPollingSystem.monitor "Probability C2_1_1_n1_n2[i][j]" 2.2874588649513e-05
scalar DynamicExhausedPollingSystem.monitor "Probability C2_1_1_n1_n2[i][j]" 1.0583213640812e-05
scalar DynamicExhausedPollingSystem.monitor "Probability C2_1_1_n1_n2[i][j]" 6.114935811098e-06
scalar DynamicExhausedPollingSystem.monitor "Probability C2_1_1_n1_n2[i][j]" 1.6884025632404e-07
scalar DynamicExhausedPollingSystem.monitor "Probability C2_1_1_n1_n2[i][j]" 1.5218102310854e-06
scalar DynamicExhausedPollingSystem.monitor "Probability C2_1_1_n1_n2[i][j]" 4.7045198955629e-07
scalar DynamicExhausedPollingSystem.monitor "Probability C2_1_1_n1_n2[i][j]" 0
scalar DynamicExhausedPollingSystem.monitor "Probability C2_1_1_n1_n2[i][j]" 0
scalar DynamicExhausedPollingSystem.monitor "Probability C2_1_1_n1_n2[i][j]" 0
scalar DynamicExhausedPollingSystem.monitor "Probability C2_1_1_n1_n2[i][j]" 0
scalar DynamicExhausedPollingSystem.monitor "Probability C2_1_1_n1_n2[i][j]" 0
scalar DynamicExhausedPollingSystem.monitor "Probability C2_1_1_n1_n2[i][j]" 0
scalar DynamicExhausedPollingSystem.monitor "Probability C2_1_1_n1_n2[i][j]" 0
scalar DynamicExhausedPollingSystem.monitor "Probability C2_1_1_n1_n2[i][j]" 0
scalar DynamicExhausedPollingSystem.monitor "Probability C2_1_1_n1_n2[i][j]" 0.053739274696837
scalar DynamicExhausedPollingSystem.monitor "Probability C2_1_1_n1_n2[i][j]" 0.001752991249493
scalar DynamicExhausedPollingSystem.monitor "Probability C2_1_1_n1_n2[i][j]" 9.3154000321803e-05
scalar DynamicExhausedPollingSystem.monitor "Probability C2_1_1_n1_n2[i][j]" 1.8958519068372e-05
scalar DynamicExhausedPollingSystem.monitor "Probability C2_1_1_n1_n2[i][j]" 5.2737380122458e-06
scalar DynamicExhausedPollingSystem.monitor "Probability C2_1_1_n1_n2[i][j]" 1.1126172551134e-06
scalar DynamicExhausedPollingSystem.monitor "Probability C2_1_1_n1_n2[i][j]" 1.1562865810725e-06
scalar DynamicExhausedPollingSystem.monitor "Probability C2_1_1_n1_n2[i][j]" 0
scalar DynamicExhausedPollingSystem.monitor "Probability C2_1_1_n1_n2[i][j]" 0
scalar DynamicExhausedPollingSystem.monitor "Probability C2_1_1_n1_n2[i][j]" 0
scalar DynamicExhausedPollingSystem.monitor "Probability C2_1_1_n1_n2[i][j]" 0
scalar DynamicExhausedPollingSystem.monitor "Probability C2_1_1_n1_n2[i][j]" 3.3348140412782e-07
scalar DynamicExhausedPollingSystem.monitor "Probability C2_1_1_n1_n2[i][j]" 0
scalar DynamicExhausedPollingSystem.monitor "Probability C2_1_1_n1_n2[i][j]" 0
scalar DynamicExhausedPollingSystem.monitor "Probability C2_1_1_n1_n2[i][j]" 0
scalar DynamicExhausedPollingSystem.monitor "Probability C2_1_1_n1_n2[i][j]" 0
scalar DynamicExhausedPollingSystem.monitor "Probability C2_1_1_n1_n2[i][j]" 0
scalar DynamicExhausedPollingSystem.monitor "Probability C2_1_1_n1_n2[i][j]" 0
scalar DynamicExhausedPollingSystem.monitor "Probability C2_1_1_n1_n2[i][j]" 0
scalar DynamicExhausedPollingSystem.monitor "Probability C2_1_1_n1_n2[i][j]" 0
scalar DynamicExhausedPollingSystem.monitor "Probability C2_1_1_n1_n2[i][j]" 0.015100006826166
scalar DynamicExhausedPollingSystem.monitor "Probability C2_1_1_n1_n2[i][j]" 0.00033344020134458
scalar DynamicExhausedPollingSystem.monitor "Probability C2_1_1_n1_n2[i][j]" 1.070538884497e-05
scalar DynamicExhausedPollingSystem.monitor "Probability C2_1_1_n1_n2[i][j]" 2.5090494014646e-06
scalar DynamicExhausedPollingSystem.monitor "Probability C2_1_1_n1_n2[i][j]" 7.1173580710924e-07
scalar DynamicExhausedPollingSystem.monitor "Probability C2_1_1_n1_n2[i][j]" 0
scalar DynamicExhausedPollingSystem.monitor "Probability C2_1_1_n1_n2[i][j]" 0
scalar DynamicExhausedPollingSystem.monitor "Probability C2_1_1_n1_n2[i][j]" 0
scalar DynamicExhausedPollingSystem.monitor "Probability C2_1_1_n1_n2[i][j]" 0
scalar DynamicExhausedPollingSystem.monitor "Probability C2_1_1_n1_n2[i][j]" 0
scalar DynamicExhausedPollingSystem.monitor "Probability C2_1_1_n1_n2[i][j]" 0
scalar DynamicExhausedPollingSystem.monitor "Probability C2_1_1_n1_n2[i][j]" 0
scalar DynamicExhausedPollingSystem.monitor "Probability C2_1_1_n1_n2[i][j]" 0
scalar DynamicExhausedPollingSystem.monitor "Probability C2_1_1_n1_n2[i][j]" 0
scalar DynamicExhausedPollingSystem.monitor "Probability C2_1_1_n1_n2[i][j]" 0
scalar DynamicExhausedPollingSystem.monitor "Probability C2_1_1_n1_n2[i][j]" 0
scalar DynamicExhausedPollingSystem.monitor "Probability C2_1_1_n1_n2[i][j]" 0
scalar DynamicExhausedPollingSystem.monitor "Probability C2_1_1_n1_n2[i][j]" 0
scalar DynamicExhausedPollingSystem.monitor "Probability C2_1_1_n1_n2[i][j]" 0
scalar DynamicExhausedPollingSystem.monitor "Probability C2_1_1_n1_n2[i][j]" 0
scalar DynamicExhausedPollingSystem.monitor "Probability C2_1_1_n1_n2[i][j]" 0.0055556456643663
scalar DynamicExhausedPollingSystem.monitor "Probability C2_1_1_n1_n2[i][j]" 0.00014146823051529
scalar DynamicExhausedPollingSystem.monitor "Probability C2_1_1_n1_n2[i][j]" 2.6533818958412e-06
scalar DynamicExhausedPollingSystem.monitor "Probability C2_1_1_n1_n2[i][j]" 0
scalar DynamicExhausedPollingSystem.monitor "Probability C2_1_1_n1_n2[i][j]" 0
scalar DynamicExhausedPollingSystem.monitor "Probability C2_1_1_n1_n2[i][j]" 0
scalar DynamicExhausedPollingSystem.monitor "Probability C2_1_1_n1_n2[i][j]" 0
scalar DynamicExhausedPollingSystem.monitor "Probability C2_1_1_n1_n2[i][j]" 0
scalar DynamicExhausedPollingSystem.monitor "Probability C2_1_1_n1_n2[i][j]" 0
scalar DynamicExhausedPollingSystem.monitor "Probability C2_1_1_n1_n2[i][j]" 0
scalar DynamicExhausedPollingSystem.monitor "Probability C2_1_1_n1_n2[i][j]" 0
scalar DynamicExhausedPollingSystem.monitor "Probability C2_1_1_n1_n2[i][j]" 0
scalar DynamicExhausedPollingSystem.monitor "Probability C2_1_1_n1_n2[i][j]" 0
scalar DynamicExhausedPollingSystem.monitor "Probability C2_1_1_n1_n2[i][j]" 0
scalar DynamicExhausedPollingSystem.monitor "Probability C2_1_1_n1_n2[i][j]" 0
scalar DynamicExhausedPollingSystem.monitor "Probability C2_1_1_n1_n2[i][j]" 0
scalar DynamicExhausedPollingSystem.monitor "Probability C2_1_1_n1_n2[i][j]" 0
scalar DynamicExhausedPollingSystem.monitor "Probability C2_1_1_n1_n2[i][j]" 0
scalar DynamicExhausedPollingSystem.monitor "Probability C2_1_1_n1_n2[i][j]" 0
scalar DynamicExhausedPollingSystem.monitor "Probability C2_1_1_n1_n2[i][j]" 0
scalar DynamicExhausedPollingSystem.monitor "Probability C2_1_1_n1_n2[i][j]" 0.0020811625079435
scalar DynamicExhausedPollingSystem.monitor "Probability C2_1_1_n1_n2[i][j]" 4.4224613846286e-05
scalar DynamicExhausedPollingSystem.monitor "Probability C2_1_1_n1_n2[i][j]" 3.6556855556723e-07
scalar DynamicExhausedPollingSystem.monitor "Probability C2_1_1_n1_n2[i][j]" 0
scalar DynamicExhausedPollingSystem.monitor "Probability C2_1_1_n1_n2[i][j]" 0
scalar DynamicExhausedPollingSystem.monitor "Probability C2_1_1_n1_n2[i][j]" 0
scalar DynamicExhausedPollingSystem.monitor "Probability C2_1_1_n1_n2[i][j]" 0
scalar DynamicExhausedPollingSystem.monitor "Probability C2_1_1_n1_n2[i][j]" 0
scalar DynamicExhausedPollingSystem.monitor "Probability C2_1_1_n1_n2[i][j]" 0
scalar DynamicExhausedPollingSystem.monitor "Probability C2_1_1_n1_n2[i][j]" 0
scalar DynamicExhausedPollingSystem.monitor "Probability C2_1_1_n1_n2[i][j]" 0
scalar DynamicExhausedPollingSystem.monitor "Probability C2_1_1_n1_n2[i][j]" 0
scalar DynamicExhausedPollingSystem.monitor "Probability C2_1_1_n1_n2[i][j]" 0
scalar DynamicExhausedPollingSystem.monitor "Probability C2_1_1_n1_n2[i][j]" 0
scalar DynamicExhausedPollingSystem.monitor "Probability C2_1_1_n1_n2[i][j]" 0
scalar DynamicExhausedPollingSystem.monitor "Probability C2_1_1_n1_n2[i][j]" 0
[...]
scalar DynamicExhausedPollingSystem.monitor "Probability I_n1_n2[i][j]" 0
scalar DynamicExhausedPollingSystem.monitor "Probability I_n1_n2[i][j]" 0
scalar DynamicExhausedPollingSystem.monitor "Probability I_n1_n2[i][j]" 0
scalar DynamicExhausedPollingSystem.monitor "Probability I_n1_n2[i][j]" 0
scalar DynamicExhausedPollingSystem.monitor "Probability I_n1_n2[i][j]" 0
scalar DynamicExhausedPollingSystem.monitor "Probability I_n1_n2[i][j]" 0
scalar DynamicExhausedPollingSystem.monitor "Probability I_n1_n2[i][j]" 0
scalar DynamicExhausedPollingSystem.monitor "Probability I_n1_n2[i][j]" 0
scalar DynamicExhausedPollingSystem.monitor "Probability I_n1_n2[i][j]" 0
scalar DynamicExhausedPollingSystem.monitor "Probability I_n1_n2[i][j]" 0
scalar DynamicExhausedPollingSystem.monitor "Probability I_n1_n2[i][j]" 0
scalar DynamicExhausedPollingSystem.monitor "Probability I_n1_n2[i][j]" 0
scalar DynamicExhausedPollingSystem.monitor "Probability I_n1_n2[i][j]" 0
scalar DynamicExhausedPollingSystem.monitor "Probability I_n1_n2[i][j]" 0
scalar DynamicExhausedPollingSystem.monitor "Probability I_n1_n2[i][j]" 0
scalar DynamicExhausedPollingSystem.monitor "Probability I_n1_n2[i][j]" 0
scalar DynamicExhausedPollingSystem.monitor "Probability I_n1_n2[i][j]" 0
scalar DynamicExhausedPollingSystem.monitor "Probability I_n1_n2[i][j]" 0
scalar DynamicExhausedPollingSystem.monitor "Probability I_n1_n2[i][j]" 0
scalar DynamicExhausedPollingSystem.monitor "Probability I_n1_n2[i][j]" 0
scalar DynamicExhausedPollingSystem.monitor "Probability I_n1_n2[i][j]" 0
scalar DynamicExhausedPollingSystem.monitor "Probability I_n1_n2[i][j]" 0
scalar DynamicExhausedPollingSystem.monitor "Probability I_n1_n2[i][j]" 0
scalar DynamicExhausedPollingSystem.monitor "Probability I_n1_n2[i][j]" 0
scalar DynamicExhausedPollingSystem.monitor "Probability I_n1_n2[i][j]" 0
scalar DynamicExhausedPollingSystem.monitor "Probability I_n1_n2[i][j]" 0
scalar DynamicExhausedPollingSystem.monitor "Probability I_n1_n2[i][j]" 0
scalar DynamicExhausedPollingSystem.monitor "Probability I_n1_n2[i][j]" 0
scalar DynamicExhausedPollingSystem.monitor "Probability I_n1_n2[i][j]" 0
scalar DynamicExhausedPollingSystem.monitor "Probability I_n1_n2[i][j]" 0
scalar DynamicExhausedPollingSystem.monitor "Probability I_n1_n2[i][j]" 0
scalar DynamicExhausedPollingSystem.monitor "Probability I_n1_n2[i][j]" 0
scalar DynamicExhausedPollingSystem.monitor "Probability I_n1_n2[i][j]" 0
scalar DynamicExhausedPollingSystem.monitor "Probability I_n1_n2[i][j]" 0
scalar DynamicExhausedPollingSystem.monitor "Probability I_n1_n2[i][j]" 0
scalar DynamicExhausedPollingSystem.monitor "Probability I_n1_n2[i][j]" 0
scalar DynamicExhausedPollingSystem.monitor "Probability I_n1_n2[i][j]" 0
scalar DynamicExhausedPollingSystem.monitor "Probability I_n1_n2[i][j]" 0
scalar DynamicExhausedPollingSystem.monitor "Probability I_n1_n2[i][j]" 0
scalar DynamicExhausedPollingSystem.monitor "Probability I_n1_n2[i][j]" 0
scalar DynamicExhausedPollingSystem.monitor "Probability I_n1_n2[i][j]" 0
scalar DynamicExhausedPollingSystem.monitor "Probability I_n1_n2[i][j]" 0
scalar DynamicExhausedPollingSystem.monitor "Probability I_n1_n2[i][j]" 0
scalar DynamicExhausedPollingSystem.monitor "Probability I_n1_n2[i][j]" 0
scalar DynamicExhausedPollingSystem.monitor "Probability I_n1_n2[i][j]" 0
scalar DynamicExhausedPollingSystem.monitor "Probability I_n1_n2[i][j]" 0
scalar DynamicExhausedPollingSystem.monitor "Probability I_n1_n2[i][j]" 0
scalar DynamicExhausedPollingSystem.monitor "Probability I_n1_n2[i][j]" 0
scalar DynamicExhausedPollingSystem.monitor "Probability I_n1_n2[i][j]" 0
scalar DynamicExhausedPollingSystem.monitor "Probability I_n1_n2[i][j]" 0
scalar DynamicExhausedPollingSystem.monitor "Probability I_n1_n2[i][j]" 0
scalar DynamicExhausedPollingSystem.monitor "Probability I_n1_n2[i][j]" 0
scalar DynamicExhausedPollingSystem.monitor "Probability I_n1_n2[i][j]" 0
scalar DynamicExhausedPollingSystem.monitor "Probability I_n1_n2[i][j]" 0
scalar DynamicExhausedPollingSystem.monitor "Probability I_n1_n2[i][j]" 0
scalar DynamicExhausedPollingSystem.monitor "Probability I_n1_n2[i][j]" 0
scalar DynamicExhausedPollingSystem.monitor "Probability I_n1_n2[i][j]" 0
scalar DynamicExhausedPollingSystem.monitor "Probability I_n1_n2[i][j]" 0
scalar DynamicExhausedPollingSystem.monitor "Probability I_n1_n2[i][j]" 0
scalar DynamicExhausedPollingSystem.monitor "Probability I_n1_n2[i][j]" 0
scalar DynamicExhausedPollingSystem.monitor "Probability I_n1_n2[i][j]" 0
scalar DynamicExhausedPollingSystem.monitor "Probability I_n1_n2[i][j]" 0
scalar DynamicExhausedPollingSystem.monitor "Probability I_n1_n2[i][j]" 0
scalar DynamicExhausedPollingSystem.monitor "Probability I_n1_n2[i][j]" 0
scalar DynamicExhausedPollingSystem.monitor "Probability I_n1_n2[i][j]" 0
scalar DynamicExhausedPollingSystem.monitor "Probability I_n1_n2[i][j]" 0
scalar DynamicExhausedPollingSystem.monitor "Probability I_n1_n2[i][j]" 0
scalar DynamicExhausedPollingSystem.monitor "Probability I_n1_n2[i][j]" 0
scalar DynamicExhausedPollingSystem.monitor "Probability I_n1_n2[i][j]" 0
scalar DynamicExhausedPollingSystem.monitor "Probability I_n1_n2[i][j]" 0
scalar DynamicExhausedPollingSystem.monitor "Probability I_n1_n2[i][j]" 0
scalar DynamicExhausedPollingSystem.monitor "Probability I_n1_n2[i][j]" 0
scalar DynamicExhausedPollingSystem.monitor "Probability I_n1_n2[i][j]" 0
scalar DynamicExhausedPollingSystem.monitor "Probability I_n1_n2[i][j]" 0
scalar DynamicExhausedPollingSystem.monitor "Probability I_n1_n2[i][j]" 0
scalar DynamicExhausedPollingSystem.monitor "Probability I_n1_n2[i][j]" 0
scalar DynamicExhausedPollingSystem.monitor "Probability I_n1_n2[i][j]" 0
scalar DynamicExhausedPollingSystem.monitor "Probability I_n1_n2[i][j]" 0
scalar DynamicExhausedPollingSystem.monitor "Probability I_n1_n2[i][j]" 0
scalar DynamicExhausedPollingSystem.monitor "Probability I_n1_n2[i][j]" 0
scalar DynamicExhausedPollingSystem.monitor "Probability I_n1_n2[i][j]" 0
scalar DynamicExhausedPollingSystem.monitor "Probability I_n1_n2[i][j]" 0
scalar DynamicExhausedPollingSystem.monitor "Probability I_n1_n2[i][j]" 0
scalar DynamicExhausedPollingSystem.monitor "Probability I_n1_n2[i][j]" 0
scalar DynamicExhausedPollingSystem.monitor "Probability I_n1_n2[i][j]" 0
scalar DynamicExhausedPollingSystem.monitor "Probability I_n1_n2[i][j]" 0
scalar DynamicExhausedPollingSystem.monitor "Probability I_n1_n2[i][j]" 0
scalar DynamicExhausedPollingSystem.monitor "Probability I_n1_n2[i][j]" 0
scalar DynamicExhausedPollingSystem.monitor "Probability I_n1_n2[i][j]" 0
scalar DynamicExhausedPollingSystem.monitor "Probability I_n1_n2[i][j]" 0
scalar DynamicExhausedPollingSystem.monitor "Probability I_n1_n2[i][j]" 0
scalar DynamicExhausedPollingSystem.monitor "Probability I_n1_n2[i][j]" 0
scalar DynamicExhausedPollingSystem.monitor "Probability I_n1_n2[i][j]" 0
scalar DynamicExhausedPollingSystem.monitor "Probability I_n1_n2[i][j]" 0
scalar DynamicExhausedPollingSystem.monitor "Probability I_n1_n2[i][j]" 0
scalar DynamicExhausedPollingSystem.monitor "Probability I_n1_n2[i][j]" 0
scalar DynamicExhausedPollingSystem.monitor "Probability I_n1_n2[i][j]" 0
scalar DynamicExhausedPollingSystem.monitor "Probability I_n1_n2[i][j]" 0
scalar DynamicExhausedPollingSystem.monitor "Probability I_n1_n2[i][j]" 0
scalar DynamicExhausedPollingSystem.monitor "Probability I_n1_n2[i][j]" 0
scalar DynamicExhausedPollingSystem.monitor "Probability I_n1_n2[i][j]" 0
scalar DynamicExhausedPollingSystem.monitor "Probability I_n1_n2[i][j]" 0
scalar DynamicExhausedPollingSystem.monitor "Probability I_n1_n2[i][j]" 0
scalar DynamicExhausedPollingSystem.monitor "Probability I_n1_n2[i][j]" 0
scalar DynamicExhausedPollingSystem.monitor "Probability I_n1_n2[i][j]" 0
scalar DynamicExhausedPollingSystem.monitor "Probability I_n1_n2[i][j]" 0
scalar DynamicExhausedPollingSystem.monitor "Probability I_n1_n2[i][j]" 0
scalar DynamicExhausedPollingSystem.monitor "Probability I_n1_n2[i][j]" 0
scalar DynamicExhausedPollingSystem.monitor "Probability I_n1_n2[i][j]" 0
scalar DynamicExhausedPollingSystem.monitor "Probability I_n1_n2[i][j]" 0
scalar DynamicExhausedPollingSystem.monitor "Probability I_n1_n2[i][j]" 0
scalar DynamicExhausedPollingSystem.monitor "Probability I_n1_n2[i][j]" 0
scalar DynamicExhausedPollingSystem.monitor "Probability I_n1_n2[i][j]" 0
scalar DynamicExhausedPollingSystem.monitor "Probability I_n1_n2[i][j]" 0
scalar DynamicExhausedPollingSystem.monitor "Probability I_n1_n2[i][j]" 0
scalar DynamicExhausedPollingSystem.monitor "Probability I_n1_n2[i][j]" 0
scalar DynamicExhausedPollingSystem.monitor "Probability I_n1_n2[i][j]" 0
scalar DynamicExhausedPollingSystem.monitor "Probability I_n1_n2[i][j]" 0
scalar DynamicExhausedPollingSystem.monitor "Probability I_n1_n2[i][j]" 0
scalar DynamicExhausedPollingSystem.monitor "Probability I_n1_n2[i][j]" 0
scalar DynamicExhausedPollingSystem.monitor "Probability I_n1_n2[i][j]" 0
scalar DynamicExhausedPollingSystem.monitor "Probability I_n1_n2[i][j]" 0
scalar DynamicExhausedPollingSystem.monitor "Probability I_n1_n2[i][j]" 0
scalar DynamicExhausedPollingSystem.monitor "Probability I_n1_n2[i][j]" 0
scalar DynamicExhausedPollingSystem.monitor "Probability I_n1_n2[i][j]" 0
scalar DynamicExhausedPollingSystem.monitor "Probability I_n1_n2[i][j]" 0
scalar DynamicExhausedPollingSystem.monitor "Probability I_n1_n2[i][j]" 0
scalar DynamicExhausedPollingSystem.monitor "Probability I_n1_n2[i][j]" 0
scalar DynamicExhausedPollingSystem.monitor "Probability I_n1_n2[i][j]" 0
scalar DynamicExhausedPollingSystem.monitor "Probability I_n1_n2[i][j]" 0
scalar DynamicExhausedPollingSystem.monitor "Probability I_n1_n2[i][j]" 0
scalar DynamicExhausedPollingSystem.monitor "Probability I_n1_n2[i][j]" 0
scalar DynamicExhausedPollingSystem.monitor "Probability I_n1_n2[i][j]" 0
scalar DynamicExhausedPollingSystem.monitor "Probability I_n1_n2[i][j]" 0
scalar DynamicExhausedPollingSystem.monitor "Probability I_n1_n2[i][j]" 0
scalar DynamicExhausedPollingSystem.monitor "Probability I_n1_n2[i][j]" 0
scalar DynamicExhausedPollingSystem.monitor "Probability I_n1_n2[i][j]" 0
scalar DynamicExhausedPollingSystem.monitor "Probability I_n1_n2[i][j]" 0
scalar DynamicExhausedPollingSystem.monitor "Probability I_n1_n2[i][j]" 0
scalar DynamicExhausedPollingSystem.monitor "Probability I_n1_n2[i][j]" 0
scalar DynamicExhausedPollingSystem.monitor "Probability I_n1_n2[i][j]" 0
scalar DynamicExhausedPollingSystem.monitor "Probability I_n1_n2[i][j]" 0
scalar DynamicExhausedPollingSystem.monitor "Probability I_n1_n2[i][j]" 0
scalar DynamicExhausedPollingSystem.monitor "Probability I_n1_n2[i][j]" 0
scalar DynamicExhausedPollingSystem.monitor "Probability I_n1_n2[i][j]" 0
scalar DynamicExhausedPollingSystem.monitor "Probability I_n1_n2[i][j]" 0
scalar DynamicExhausedPollingSystem.monitor "Probability I_n1_n2[i][j]" 0
scalar DynamicExhausedPollingSystem.monitor "Probability I_n1_n2[i][j]" 0
scalar DynamicExhausedPollingSystem.monitor "Probability I_n1_n2[i][j]" 0
scalar DynamicExhausedPollingSystem.monitor "Probability I_n1_n2[i][j]" 0
scalar DynamicExhausedPollingSystem.monitor "Probability I_n1_n2[i][j]" 0
scalar DynamicExhausedPollingSystem.monitor "Probability I_n1_n2[i][j]" 0
scalar DynamicExhausedPollingSystem.monitor "Probability I_n1_n2[i][j]" 0
scalar DynamicExhausedPollingSystem.monitor "Probability I_n1_n2[i][j]" 0
scalar DynamicExhausedPollingSystem.monitor "Probability I_n1_n2[i][j]" 0
scalar DynamicExhausedPollingSystem.monitor "Probability I_n1_n2[i][j]" 0
scalar DynamicExhausedPollingSystem.monitor "Probability I_n1_n2[i][j]" 0
scalar DynamicExhausedPollingSystem.monitor "Probability I_n1_n2[i][j]" 0
scalar DynamicExhausedPollingSystem.monitor "Probability I_n1_n2[i][j]" 0
scalar DynamicExhausedPollingSystem.monitor "Probability I_n1_n2[i][j]" 0
scalar DynamicExhausedPollingSystem.monitor "Probability I_n1_n2[i][j]" 0
scalar DynamicExhausedPollingSystem.monitor "Probability I_n1_n2[i][j]" 0
scalar DynamicExhausedPollingSystem.monitor "Probability I_n1_n2[i][j]" 0
scalar DynamicExhausedPollingSystem.monitor "Probability I_n1_n2[i][j]" 0
scalar DynamicExhausedPollingSystem.monitor "Probability I_n1_n2[i][j]" 0
scalar DynamicExhausedPollingSystem.monitor "Probability I_n1_n2[i][j]" 0
scalar DynamicExhausedPollingSystem.monitor "Probability I_n1_n2[i][j]" 0
scalar DynamicExhausedPollingSystem.monitor "Probability I_n1_n2[i][j]" 0
scalar DynamicExhausedPollingSystem.monitor "Probability I_n1_n2[i][j]" 0
scalar DynamicExhausedPollingSystem.monitor "Probability I_n1_n2[i][j]" 0
scalar DynamicExhausedPollingSystem.monitor "Probability I_n1_n2[i][j]" 0
scalar DynamicExhausedPollingSystem.monitor "Probability I_n1_n2[i][j]" 0
scalar DynamicExhausedPollingSystem.monitor "Probability I_n1_n2[i][j]" 0
scalar DynamicExhausedPollingSystem.monitor "Probability I_n1_n2[i][j]" 0
scalar DynamicExhausedPollingSystem.monitor "Probability I_n1_n2[i][j]" 0
scalar DynamicExhausedPollingSystem.monitor "Probability I_n1_n2[i][j]" 0
scalar DynamicExhausedPollingSystem.monitor "Probability I_n1_n2[i][j]" 0
scalar DynamicExhausedPollingSystem.monitor "Probability I_n1_n2[i][j]" 0
scalar DynamicExhausedPollingSystem.monitor "Probability I_n1_n2[i][j]" 0
scalar DynamicExhausedPollingSystem.monitor "Probability I_n1_n2[i][j]" 0
scalar DynamicExhausedPollingSystem.monitor "Probability I_n1_n2[i][j]" 0
scalar DynamicExhausedPollingSystem.monitor "Probability I_n1_n2[i][j]" 0
scalar DynamicExhausedPollingSystem.monitor "Probability I_n1_n2[i][j]" 0
scalar DynamicExhausedPollingSystem.monitor "Probability I_n1_n2[i][j]" 0
scalar DynamicExhausedPollingSystem.monitor "Probability I_n1_n2[i][j]" 0
scalar DynamicExhausedPollingSystem.monitor "Probability I_n1_n2[i][j]" 0
scalar DynamicExhausedPollingSystem.monitor "Probability I_n1_n2[i][j]" 0
scalar DynamicExhausedPollingSystem.monitor "Probability I_n1_n2[i][j]" 0
scalar DynamicExhausedPollingSystem.monitor "Probability I_n1_n2[i][j]" 0
scalar DynamicExhausedPollingSystem.monitor "Probability I_n1_n2[i][j]" 0
scalar DynamicExhausedPollingSystem.monitor "Probability I_n1_n2[i][j]" 0
scalar DynamicExhausedPollingSystem.monitor "Probability I_n1_n2[i][j]" 0
scalar DynamicExhausedPollingSystem.monitor "Probability I_n1_n2[i][j]" 0
scalar DynamicExhausedPollingSystem.monitor "Probability I_n1_n2[i][j]" 0
scalar DynamicExhausedPollingSystem.monitor "Probability I_n1_n2[i][j]" 0
scalar DynamicExhausedPollingSystem.monitor "Probability I_n1_n2[i][j]" 0
scalar DynamicExhausedPollingSystem.monitor "Probability I_n1_n2[i][j]" 0
scalar DynamicExhausedPollingSystem.monitor "Probability I_n1_n2[i][j]" 0
scalar DynamicExhausedPollingSystem.monitor "Probability I_n1_n2[i][j]" 0
scalar DynamicExhausedPollingSystem.monitor "Probability I_n1_n2[i][j]" 0
scalar DynamicExhausedPollingSystem.monitor "Probability I_n1_n2[i][j]" 0
scalar DynamicExhausedPollingSystem.monitor "Probability I_n1_n2[i][j]" 0
scalar DynamicExhausedPollingSystem.monitor "Probability I_n1_n2[i][j]" 0
scalar DynamicExhausedPollingSystem.monitor "Probability I_n1_n2[i][j]" 0
scalar DynamicExhausedPollingSystem.monitor "Probability I_n1_n2[i][j]" 0
scalar DynamicExhausedPollingSystem.monitor "Probability I_n1_n2[i][j]" 0
scalar DynamicExhausedPollingSystem.monitor "Probability I_n1_n2[i][j]" 0
scalar DynamicExhausedPollingSystem.monitor "Probability I_n1_n2[i][j]" 0
scalar DynamicExhausedPollingSystem.monitor "Probability I_n1_n2[i][j]" 0
scalar DynamicExhausedPollingSystem.monitor "Probability I_n1_n2[i][j]" 0
scalar DynamicExhausedPollingSystem.monitor "Probability I_n1_n2[i][j]" 0
scalar DynamicExhausedPollingSystem.monitor "Probability I_n1_n2[i][j]" 0
scalar DynamicExhausedPollingSystem.monitor "Probability I_n1_n2[i][j]" 0
scalar DynamicExhausedPollingSystem.monitor "Probability I_n1_n2[i][j]" 0
scalar DynamicExhausedPollingSystem.monitor "Probability I_n1_n2[i][j]" 0
scalar DynamicExhausedPollingSystem.monitor "Probability I_n1_n2[i][j]" 0
scalar DynamicExhausedPollingSystem.monitor "Probability I_n1_n2[i][j]" 0
scalar DynamicExhausedPollingSystem.monitor "Probability I_n1_n2[i][j]" 0
scalar DynamicExhausedPollingSystem.monitor "Probability I_n1_n2[i][j]" 0
scalar DynamicExhausedPollingSystem.monitor "Probability I_n1_n2[i][j]" 0
scalar DynamicExhausedPollingSystem.monitor "Probability I_n1_n2[i][j]" 0
scalar DynamicExhausedPollingSystem.monitor "Probability I_n1_n2[i][j]" 0
scalar DynamicExhausedPollingSystem.monitor "Probability I_n1_n2[i][j]" 0
scalar DynamicExhausedPollingSystem.monitor "Probability I_n1_n2[i][j]" 0
scalar DynamicExhausedPollingSystem.monitor "Probability I_n1_n2[i][j]" 0
scalar DynamicExhausedPollingSystem.monitor "Probability I_n1_n2[i][j]" 0
scalar DynamicExhausedPollingSystem.monitor "Probability I_n1_n2[i][j]" 0
scalar DynamicExhausedPollingSystem.monitor "Probability I_n1_n2[i][j]" 0
scalar DynamicExhausedPollingSystem.monitor "Probability I_n1_n2[i][j]" 0
scalar DynamicExhausedPollingSystem.monitor "Probability I_n1_n2[i][j]" 0
scalar DynamicExhausedPollingSystem.monitor "Probability I_n1_n2[i][j]" 0
scalar DynamicExhausedPollingSystem.monitor "Probability I_n1_n2[i][j]" 0
scalar DynamicExhausedPollingSystem.monitor "Probability I_n1_n2[i][j]" 0
scalar DynamicExhausedPollingSystem.monitor "Probability I_n1_n2[i][j]" 0
scalar DynamicExhausedPollingSystem.monitor "Probability I_n1_n2[i][j]" 0
scalar DynamicExhausedPollingSystem.monitor "Probability I_n1_n2[i][j]" 0
scalar DynamicExhausedPollingSystem.monitor "Probability I_n1_n2[i][j]" 0
scalar DynamicExhausedPollingSystem.monitor "Probability I_n1_n2[i][j]" 0
scalar DynamicExhausedPollingSystem.monitor "Probability I_n1_n2[i][j]" 0
scalar DynamicExhausedPollingSystem.monitor "Probability I_n1_n2[i][j]" 0
scalar DynamicExhausedPollingSystem.monitor "Probability I_n1_n2[i][j]" 0
scalar DynamicExhausedPollingSystem.monitor "Probability I_n1_n2[i][j]" 0
scalar DynamicExhausedPollingSystem.monitor "Probability I_n1_n2[i][j]" 0
scalar DynamicExhausedPollingSystem.monitor "Probability I_n1_n2[i][j]" 0
scalar DynamicExhausedPollingSystem.monitor "Probability I_n1_n2[i][j]" 0
scalar DynamicExhausedPollingSystem.monitor "Probability I_n1_n2[i][j]" 0
scalar DynamicExhausedPollingSystem.monitor "Probability I_n1_n2[i][j]" 0
scalar DynamicExhausedPollingSystem.monitor "Probability I_n1_n2[i][j]" 0
scalar DynamicExhausedPollingSystem.monitor "Probability I_n1_n2[i][j]" 0
scalar DynamicExhausedPollingSystem.monitor "Probability I_n1_n2[i][j]" 0
scalar DynamicExhausedPollingSystem.monitor "Probability I_n1_n2[i][j]" 0
scalar DynamicExhausedPollingSystem.monitor "Probability I_n1_n2[i][j]" 0
scalar DynamicExhausedPollingSystem.monitor "Probability I_n1_n2[i][j]" 0
scalar DynamicExhausedPollingSystem.monitor "Probability I_n1_n2[i][j]" 0
scalar DynamicExhausedPollingSystem.monitor "Probability I_n1_n2[i][j]" 0
scalar DynamicExhausedPollingSystem.monitor "Probability I_n1_n2[i][j]" 0
scalar DynamicExhausedPollingSystem.monitor "Probability I_n1_n2[i][j]" 0
scalar DynamicExhausedPollingSystem.monitor "Probability I_n1_n2[i][j]" 0
scalar DynamicExhausedPollingSystem.monitor "Probability I_n1_n2[i][j]" 0
scalar DynamicExhausedPollingSystem.monitor "Probability I_n1_n2[i][j]" 0
scalar DynamicExhausedPollingSystem.monitor "Probability I_n1_n2[i][j]" 0
scalar DynamicExhausedPollingSystem.monitor "Probability I_n1_n2[i][j]" 0
scalar DynamicExhausedPollingSystem.monitor "Probability I_n1_n2[i][j]" 0
scalar DynamicExhausedPollingSystem.monitor "Probability I_n1_n2[i][j]" 0
scalar DynamicExhausedPollingSystem.monitor "Probability I_n1_n2[i][j]" 0
scalar DynamicExhausedPollingSystem.monitor "Probability I_n1_n2[i][j]" 0
scalar DynamicExhausedPollingSystem.monitor "Probability I_n1_n2[i][j]" 0
scalar DynamicExhausedPollingSystem.monitor "Probability C1_0_1_0_0" 0
par DynamicExhausedPollingSystem typename "\"DynamicExhausedPollingSystem\""
par DynamicExhausedPollingSystem numQueues 2

