version 3
run CyclicExhaustiveBatchPollingSystem-4-20230607-23:13:13-22816
attr configname CyclicExhaustiveBatchPollingSystem
attr datetime 20230607-23:13:13
attr datetimef 20230607-231313
attr experiment CyclicExhaustiveBatchPollingSystem
attr inifile omnetpp.ini
attr iterationvars $0=25
attr iterationvarsd 25
attr iterationvarsf 25-
attr measurement $0=25
attr network CyclicExhaustiveBatchPollingSystem
attr processid 22816
attr repetition 0
attr replication #0
attr resultdir results
attr runnumber 4
attr seedset 4
config cmdenv-redirect-output true
config description "Cyclic Exhaustive Batch Polling System"
config network CyclicExhaustiveBatchPollingSystem
config *.numQueues 2
config *.generator[*].interarrivalTime exponential(1/25)
config *.cyclicExhaustiveBatchQueue[*].serviceTime exponential(1/100)
config *.cyclicExhaustiveBatchQueue[*].batchSize 5
config *.cyclicServer.switchoverTime "\"0.001 0.001\""
config rng-class cMersenneTwister
config output-scalar-file results/CyclicExhaustiveBatchPollingSystem-20230607-231313-#25-.sca
config cmdenv-output-file results/CyclicExhaustiveBatchPollingSystem-20230607-231313-#25-.out

par CyclicExhaustiveBatchPollingSystem.generator[0] typename "\"Generator\""
par CyclicExhaustiveBatchPollingSystem.generator[0] interarrivalTime exponential(0.04)
par CyclicExhaustiveBatchPollingSystem.generator[1] typename "\"Generator\""
par CyclicExhaustiveBatchPollingSystem.generator[1] interarrivalTime exponential(0.04)
par CyclicExhaustiveBatchPollingSystem.cyclicExhaustiveBatchQueue[0] typename "\"CyclicExhaustiveBatchQueue\""
par CyclicExhaustiveBatchPollingSystem.cyclicExhaustiveBatchQueue[0] serviceTime exponential(0.01)
par CyclicExhaustiveBatchPollingSystem.cyclicExhaustiveBatchQueue[0] batchSize 5
par CyclicExhaustiveBatchPollingSystem.cyclicExhaustiveBatchQueue[0] ownIndex 0
scalar CyclicExhaustiveBatchPollingSystem.cyclicExhaustiveBatchQueue[0] "Mean queue length at its polling moment in queue[0]" 0.069315142186104
scalar CyclicExhaustiveBatchPollingSystem.cyclicExhaustiveBatchQueue[0] "Mean waiting time in queue[0]" 0.00668638047527
scalar CyclicExhaustiveBatchPollingSystem.cyclicExhaustiveBatchQueue[0] "Mean sojourn time in queue[0]" 0.0166766516898
scalar CyclicExhaustiveBatchPollingSystem.cyclicExhaustiveBatchQueue[0] "Mean cycle time in queue[0]" 0.0035417010821811
scalar CyclicExhaustiveBatchPollingSystem.cyclicExhaustiveBatchQueue[0] "Mean intervisit time in queue[0]" 0.002770783122487
scalar CyclicExhaustiveBatchPollingSystem.cyclicExhaustiveBatchQueue[0] "Number of cycle in queue[0]" 10391134
par CyclicExhaustiveBatchPollingSystem.cyclicExhaustiveBatchQueue[1] typename "\"CyclicExhaustiveBatchQueue\""
par CyclicExhaustiveBatchPollingSystem.cyclicExhaustiveBatchQueue[1] serviceTime exponential(0.01)
par CyclicExhaustiveBatchPollingSystem.cyclicExhaustiveBatchQueue[1] batchSize 5
par CyclicExhaustiveBatchPollingSystem.cyclicExhaustiveBatchQueue[1] ownIndex 1
scalar CyclicExhaustiveBatchPollingSystem.cyclicExhaustiveBatchQueue[1] "Mean queue length at its polling moment in queue[1]" 0.069257118616698
scalar CyclicExhaustiveBatchPollingSystem.cyclicExhaustiveBatchQueue[1] "Mean waiting time in queue[1]" 0.0067095134965456
scalar CyclicExhaustiveBatchPollingSystem.cyclicExhaustiveBatchQueue[1] "Mean sojourn time in queue[1]" 0.016715031489752
scalar CyclicExhaustiveBatchPollingSystem.cyclicExhaustiveBatchQueue[1] "Mean cycle time in queue[1]" 0.0035416953983874
scalar CyclicExhaustiveBatchPollingSystem.cyclicExhaustiveBatchQueue[1] "Mean intervisit time in queue[1]" 0.0027703514187722
scalar CyclicExhaustiveBatchPollingSystem.cyclicExhaustiveBatchQueue[1] "Number of cycle in queue[1]" 10391133
par CyclicExhaustiveBatchPollingSystem.cyclicServer typename "\"CyclicServer\""
par CyclicExhaustiveBatchPollingSystem.cyclicServer switchoverTime "\"0.001 0.001\""
par CyclicExhaustiveBatchPollingSystem.cyclicServer numQueues 2
scalar CyclicExhaustiveBatchPollingSystem.cyclicServer "Mean cycle time in the server" 0.0035417011565452
scalar CyclicExhaustiveBatchPollingSystem.cyclicServer "Number of cycle" 10391134
par CyclicExhaustiveBatchPollingSystem.sink typename "\"Sink\""
scalar CyclicExhaustiveBatchPollingSystem.sink "Mean sojourn time" 0.016695832309702
scalar CyclicExhaustiveBatchPollingSystem.sink "Number of packets" 1840396
scalar CyclicExhaustiveBatchPollingSystem.sink "Working time" 17.568
par CyclicExhaustiveBatchPollingSystem typename "\"CyclicExhaustiveBatchPollingSystem\""
par CyclicExhaustiveBatchPollingSystem numQueues 2

