version 3
run CyclicExhaustiveBatchPollingSystem-9-20230606-17:00:32-12780
attr configname CyclicExhaustiveBatchPollingSystem
attr datetime 20230606-17:00:32
attr datetimef 20230606-170032
attr experiment CyclicExhaustiveBatchPollingSystem
attr inifile omnetpp.ini
attr iterationvars $0=45
attr iterationvarsd 45
attr iterationvarsf 45-
attr measurement $0=45
attr network CyclicExhaustiveBatchPollingSystem
attr processid 12780
attr repetition 0
attr replication #0
attr resultdir results
attr runnumber 9
attr seedset 9
config cmdenv-redirect-output true
config description "Cyclic Exhaustive Batch Polling System"
config network CyclicExhaustiveBatchPollingSystem
config *.numQueues 2
config *.generator[*].interarrivalTime exponential(1/45)
config *.cyclicExhaustiveBatchQueue[*].serviceTime exponential(1/100)
config *.cyclicExhaustiveBatchQueue[*].batchSize 1
config *.cyclicServer.switchoverTime "\"0.001 0.001\""
config rng-class cMersenneTwister
config output-scalar-file results/CyclicExhaustiveBatchPollingSystem-20230606-170032-9-#9.sca
config cmdenv-output-file results/CyclicExhaustiveBatchPollingSystem-20230606-170032-9-#9.out

par CyclicExhaustiveBatchPollingSystem.generator[0] typename "\"Generator\""
par CyclicExhaustiveBatchPollingSystem.generator[0] interarrivalTime exponential(0.0222222)
par CyclicExhaustiveBatchPollingSystem.generator[1] typename "\"Generator\""
par CyclicExhaustiveBatchPollingSystem.generator[1] interarrivalTime exponential(0.0222222)
par CyclicExhaustiveBatchPollingSystem.cyclicExhaustiveBatchQueue[0] typename "\"CyclicExhaustiveBatchQueue\""
par CyclicExhaustiveBatchPollingSystem.cyclicExhaustiveBatchQueue[0] serviceTime exponential(0.01)
par CyclicExhaustiveBatchPollingSystem.cyclicExhaustiveBatchQueue[0] batchSize 1
par CyclicExhaustiveBatchPollingSystem.cyclicExhaustiveBatchQueue[0] ownIndex 0
scalar CyclicExhaustiveBatchPollingSystem.cyclicExhaustiveBatchQueue[0] "Mean queue length at its polling moment in queue[0]" 0.49147493444454
scalar CyclicExhaustiveBatchPollingSystem.cyclicExhaustiveBatchQueue[0] "Mean waiting time in queue[0]" 0.095595035720693
scalar CyclicExhaustiveBatchPollingSystem.cyclicExhaustiveBatchQueue[0] "Mean sojourn time in queue[0]" 0.10558785542534
scalar CyclicExhaustiveBatchPollingSystem.cyclicExhaustiveBatchQueue[0] "Mean cycle time in queue[0]" 0.019849552861495
scalar CyclicExhaustiveBatchPollingSystem.cyclicExhaustiveBatchQueue[0] "Mean intervisit time in queue[0]" 0.010927227519516
scalar CyclicExhaustiveBatchPollingSystem.cyclicExhaustiveBatchQueue[0] "Number of cycle in queue[0]" 4026361
par CyclicExhaustiveBatchPollingSystem.cyclicExhaustiveBatchQueue[1] typename "\"CyclicExhaustiveBatchQueue\""
par CyclicExhaustiveBatchPollingSystem.cyclicExhaustiveBatchQueue[1] serviceTime exponential(0.01)
par CyclicExhaustiveBatchPollingSystem.cyclicExhaustiveBatchQueue[1] batchSize 1
par CyclicExhaustiveBatchPollingSystem.cyclicExhaustiveBatchQueue[1] ownIndex 1
scalar CyclicExhaustiveBatchPollingSystem.cyclicExhaustiveBatchQueue[1] "Mean queue length at its polling moment in queue[1]" 0.49110872075306
scalar CyclicExhaustiveBatchPollingSystem.cyclicExhaustiveBatchQueue[1] "Mean waiting time in queue[1]" 0.095543031184027
scalar CyclicExhaustiveBatchPollingSystem.cyclicExhaustiveBatchQueue[1] "Mean sojourn time in queue[1]" 0.10554539492253
scalar CyclicExhaustiveBatchPollingSystem.cyclicExhaustiveBatchQueue[1] "Mean cycle time in queue[1]" 0.019849420314854
scalar CyclicExhaustiveBatchPollingSystem.cyclicExhaustiveBatchQueue[1] "Mean intervisit time in queue[1]" 0.010923366312015
scalar CyclicExhaustiveBatchPollingSystem.cyclicExhaustiveBatchQueue[1] "Number of cycle in queue[1]" 4026360
par CyclicExhaustiveBatchPollingSystem.cyclicServer typename "\"CyclicServer\""
par CyclicExhaustiveBatchPollingSystem.cyclicServer switchoverTime "\"0.001 0.001\""
par CyclicExhaustiveBatchPollingSystem.cyclicServer numQueues 2
scalar CyclicExhaustiveBatchPollingSystem.cyclicServer "Mean cycle time in the server" 0.019849552987674
scalar CyclicExhaustiveBatchPollingSystem.cyclicServer "Number of cycle" 4026361
par CyclicExhaustiveBatchPollingSystem.sink typename "\"Sink\""
scalar CyclicExhaustiveBatchPollingSystem.sink "Mean sojourn time" 0.10556663087413
scalar CyclicExhaustiveBatchPollingSystem.sink "Number of packets" 7188242
scalar CyclicExhaustiveBatchPollingSystem.sink "Working time" 18.911
par CyclicExhaustiveBatchPollingSystem typename "\"CyclicExhaustiveBatchPollingSystem\""
par CyclicExhaustiveBatchPollingSystem numQueues 2

