version 3
run CyclicExhaustiveBatchPollingSystem-3-20230614-14:31:35-13020
attr configname CyclicExhaustiveBatchPollingSystem
attr datetime 20230614-14:31:35
attr datetimef 20230614-143135
attr experiment CyclicExhaustiveBatchPollingSystem
attr inifile omnetpp.ini
attr iterationvars $0=25
attr iterationvarsd 25
attr iterationvarsf 25-
attr measurement $0=25
attr network CyclicExhaustiveBatchPollingSystem
attr processid 13020
attr repetition 0
attr replication #0
attr resultdir results
attr runnumber 3
attr seedset 3
config cmdenv-redirect-output true
config description "Cyclic Exhaustive Batch Polling System"
config network CyclicExhaustiveBatchPollingSystem
config *.numQueues 2
config *.generator[*].interarrivalTime exponential(1/25)
config *.cyclicExhaustiveBatchQueue[*].queueCapacity inf
config *.cyclicExhaustiveBatchQueue[*].serviceTime exponential(1/100)
config *.cyclicExhaustiveBatchQueue[*].batchSize 3
config *.cyclicServer.switchoverTime "\"0.001 0.001\""
config rng-class cMersenneTwister
config output-scalar-file results/CyclicExhaustiveBatchPollingSystem-20230614-143135-#25-.sca
config cmdenv-output-file results/CyclicExhaustiveBatchPollingSystem-20230614-143135-#25-.out

par CyclicExhaustiveBatchPollingSystem.generator[0] typename "\"Generator\""
par CyclicExhaustiveBatchPollingSystem.generator[0] interarrivalTime exponential(0.04)
par CyclicExhaustiveBatchPollingSystem.generator[1] typename "\"Generator\""
par CyclicExhaustiveBatchPollingSystem.generator[1] interarrivalTime exponential(0.04)
par CyclicExhaustiveBatchPollingSystem.cyclicExhaustiveBatchQueue[0] typename "\"CyclicExhaustiveBatchQueue\""
par CyclicExhaustiveBatchPollingSystem.cyclicExhaustiveBatchQueue[0] ownIndex 0
par CyclicExhaustiveBatchPollingSystem.cyclicExhaustiveBatchQueue[0] queueCapacity "inf "
par CyclicExhaustiveBatchPollingSystem.cyclicExhaustiveBatchQueue[0] serviceTime exponential(0.01)
par CyclicExhaustiveBatchPollingSystem.cyclicExhaustiveBatchQueue[0] batchSize 3
scalar CyclicExhaustiveBatchPollingSystem.cyclicExhaustiveBatchQueue[0] "Mean queue length at its polling moment in queue[0]" 0.069434391396387
scalar CyclicExhaustiveBatchPollingSystem.cyclicExhaustiveBatchQueue[0] "Mean waiting time in queue[0]" 0.0068061535553942
scalar CyclicExhaustiveBatchPollingSystem.cyclicExhaustiveBatchQueue[0] "Mean sojourn time in queue[0]" 0.016800588135626
scalar CyclicExhaustiveBatchPollingSystem.cyclicExhaustiveBatchQueue[0] "Mean cycle time in queue[0]" 0.0035515901107585
scalar CyclicExhaustiveBatchPollingSystem.cyclicExhaustiveBatchQueue[0] "Mean intervisit time in queue[0]" 0.0027760519805211
scalar CyclicExhaustiveBatchPollingSystem.cyclicExhaustiveBatchQueue[0] "Number of cycle in queue[0]" 36000689
par CyclicExhaustiveBatchPollingSystem.cyclicExhaustiveBatchQueue[1] typename "\"CyclicExhaustiveBatchQueue\""
par CyclicExhaustiveBatchPollingSystem.cyclicExhaustiveBatchQueue[1] ownIndex 1
par CyclicExhaustiveBatchPollingSystem.cyclicExhaustiveBatchQueue[1] queueCapacity "inf "
par CyclicExhaustiveBatchPollingSystem.cyclicExhaustiveBatchQueue[1] serviceTime exponential(0.01)
par CyclicExhaustiveBatchPollingSystem.cyclicExhaustiveBatchQueue[1] batchSize 3
scalar CyclicExhaustiveBatchPollingSystem.cyclicExhaustiveBatchQueue[1] "Mean queue length at its polling moment in queue[1]" 0.069459253960389
scalar CyclicExhaustiveBatchPollingSystem.cyclicExhaustiveBatchQueue[1] "Mean waiting time in queue[1]" 0.006812006831576
scalar CyclicExhaustiveBatchPollingSystem.cyclicExhaustiveBatchQueue[1] "Mean sojourn time in queue[1]" 0.016810218018212
scalar CyclicExhaustiveBatchPollingSystem.cyclicExhaustiveBatchQueue[1] "Mean cycle time in queue[1]" 0.0035515896164011
scalar CyclicExhaustiveBatchPollingSystem.cyclicExhaustiveBatchQueue[1] "Mean intervisit time in queue[1]" 0.0027756390407252
scalar CyclicExhaustiveBatchPollingSystem.cyclicExhaustiveBatchQueue[1] "Number of cycle in queue[1]" 36000688
par CyclicExhaustiveBatchPollingSystem.cyclicServer typename "\"CyclicServer\""
par CyclicExhaustiveBatchPollingSystem.cyclicServer switchoverTime "\"0.001 0.001\""
par CyclicExhaustiveBatchPollingSystem.cyclicServer numQueues 2
scalar CyclicExhaustiveBatchPollingSystem.cyclicServer "Mean cycle time in the server" 0.0035515901130876
scalar CyclicExhaustiveBatchPollingSystem.cyclicServer "Number of cycle" 36000689
par CyclicExhaustiveBatchPollingSystem.sink typename "\"Sink\""
scalar CyclicExhaustiveBatchPollingSystem.sink "Mean sojourn time" 0.016805404842452
scalar CyclicExhaustiveBatchPollingSystem.sink "Number of packets" 6395263
scalar CyclicExhaustiveBatchPollingSystem.sink "Working time" 59.116
par CyclicExhaustiveBatchPollingSystem typename "\"CyclicExhaustiveBatchPollingSystem\""
par CyclicExhaustiveBatchPollingSystem numQueues 2

