version 3
run DynamicExhaustivePollingSystemWithTwoQueues-0-20230517-14:42:04-20932
attr configname DynamicExhaustivePollingSystemWithTwoQueues
attr datetime 20230517-14:42:04
attr datetimef 20230517-144204
attr experiment DynamicExhaustivePollingSystemWithTwoQueues
attr inifile omnetpp.ini
attr iterationvars ""
attr iterationvarsd ""
attr iterationvarsf ""
attr measurement ""
attr network DynamicExhaustivePollingSystem
attr processid 20932
attr repetition 0
attr replication #0
attr resultdir results
attr runnumber 0
attr seedset 0
config description "Dynamic Adaptive Exhaustive Polling System With 2 Queues"
config network DynamicExhaustivePollingSystem
config *.numQueues 2
config *.generator[0].interarrivalTime exponential(1/30)
config *.generator[1].interarrivalTime exponential(1/20)
config *.dynamicExhaustiveQueue[*].serviceTime exponential(0.01)
config *.dynamicServer.switchoverTime "\"0.001 0.001\""
config *.dynamicServer.vacationTime exponential(0.002)
config rng-class cMersenneTwister
config output-scalar-file results/20230517-144204-0-#0.sca
config cmdenv-output-file results/20230517-144204-0-#0.out

par DynamicExhaustivePollingSystem.generator[0] typename "\"Generator\""
par DynamicExhaustivePollingSystem.generator[0] interarrivalTime exponential(0.0333333)
par DynamicExhaustivePollingSystem.generator[1] typename "\"Generator\""
par DynamicExhaustivePollingSystem.generator[1] interarrivalTime exponential(0.05)
par DynamicExhaustivePollingSystem.dynamicExhaustiveQueue[0] typename "\"DynamicExhaustiveQueue\""
par DynamicExhaustivePollingSystem.dynamicExhaustiveQueue[0] serviceTime exponential(0.01)
par DynamicExhaustivePollingSystem.dynamicExhaustiveQueue[0] ownIndex 0
scalar DynamicExhaustivePollingSystem.dynamicExhaustiveQueue[0] "Mean waiting time in DynamicExhaustiveQueue[0]" 0.011934752544823
scalar DynamicExhaustivePollingSystem.dynamicExhaustiveQueue[0] "Mean sojourn time in DynamicExhaustiveQueue[0]" 0.021937386407803
scalar DynamicExhaustivePollingSystem.dynamicExhaustiveQueue[0] "Mean cycle time in DynamicExhaustiveQueue[0]" 0.0052191760416865
scalar DynamicExhaustivePollingSystem.dynamicExhaustiveQueue[0] "Mean intervisit time in DynamicExhaustiveQueue[0]" 0.003652420465178
scalar DynamicExhaustivePollingSystem.dynamicExhaustiveQueue[0] "Number of cycle in DynamicExhaustiveQueue[0]" 23689032
par DynamicExhaustivePollingSystem.dynamicExhaustiveQueue[1] typename "\"DynamicExhaustiveQueue\""
par DynamicExhaustivePollingSystem.dynamicExhaustiveQueue[1] serviceTime exponential(0.01)
par DynamicExhaustivePollingSystem.dynamicExhaustiveQueue[1] ownIndex 1
scalar DynamicExhaustivePollingSystem.dynamicExhaustiveQueue[1] "Mean waiting time in DynamicExhaustiveQueue[1]" 0.014201454667086
scalar DynamicExhaustivePollingSystem.dynamicExhaustiveQueue[1] "Mean sojourn time in DynamicExhaustiveQueue[1]" 0.024203226158548
scalar DynamicExhaustivePollingSystem.dynamicExhaustiveQueue[1] "Mean cycle time in DynamicExhaustiveQueue[1]" 0.0052777573448154
scalar DynamicExhaustivePollingSystem.dynamicExhaustiveQueue[1] "Mean intervisit time in DynamicExhaustiveQueue[1]" 0.0042211994244414
scalar DynamicExhaustivePollingSystem.dynamicExhaustiveQueue[1] "Number of cycle in DynamicExhaustiveQueue[1]" 23426092
par DynamicExhaustivePollingSystem.dynamicServer typename "\"DynamicServer\""
par DynamicExhaustivePollingSystem.dynamicServer switchoverTime "\"0.001 0.001\""
par DynamicExhaustivePollingSystem.dynamicServer vacationTime exponential(0.002)
par DynamicExhaustivePollingSystem.dynamicServer numQueues 2
scalar DynamicExhaustivePollingSystem.dynamicServer "Mean cycle time in the server" 0.0027361516072892
scalar DynamicExhaustivePollingSystem.dynamicServer "Number of cycle" 45186542
par DynamicExhaustivePollingSystem.sink typename "\"Sink\""
scalar DynamicExhaustivePollingSystem.sink "Mean sojourn time" 0.022843939983506
scalar DynamicExhaustivePollingSystem.sink "Number of packets" 6185182
scalar DynamicExhaustivePollingSystem.sink "Working time" 404.122
par DynamicExhaustivePollingSystem.monitor typename "\"Monitor\""
par DynamicExhaustivePollingSystem.monitor numQueues 2
scalar DynamicExhaustivePollingSystem.monitor "Probability C1" 19.158190208808
scalar DynamicExhaustivePollingSystem.monitor "Probability C2" 18.944793900366
scalar DynamicExhaustivePollingSystem.monitor "Probability S1" 30.01920374027
scalar DynamicExhaustivePollingSystem.monitor "Probability S2" 20.01906359437
scalar DynamicExhaustivePollingSystem.monitor "Probability V" 11.858720679308
scalar DynamicExhaustivePollingSystem.monitor "Probability C1_1_1" 7.48657585719
scalar DynamicExhaustivePollingSystem.monitor "Probability C1_1_0" 11.671614351611
scalar DynamicExhaustivePollingSystem.monitor "Probability C2_1_1" 12.382823966339
scalar DynamicExhaustivePollingSystem.monitor "Probability C2_0_1" 6.5619699340277
scalar DynamicExhaustivePollingSystem.monitor "Probability S1_1_1" 15.783839375013
scalar DynamicExhaustivePollingSystem.monitor "Probability S1_1_0" 14.235364365259
scalar DynamicExhaustivePollingSystem.monitor "Probability S2_1_1" 10.559515936221
scalar DynamicExhaustivePollingSystem.monitor "Probability S2_0_1" 9.4595476581487
scalar DynamicExhaustivePollingSystem.monitor "Probability C1_1_1_0_0" 6.0461726644235
scalar DynamicExhaustivePollingSystem.monitor "Probability C1_1_1_0_1" 0.44392145900088
scalar DynamicExhaustivePollingSystem.monitor "Probability C1_1_1_0_2" 0.054393906208267
scalar DynamicExhaustivePollingSystem.monitor "Probability C1_1_1_0_3" 0.013167641971105
scalar DynamicExhaustivePollingSystem.monitor "Probability C1_1_1_0_4" 0.0045085691246238
scalar DynamicExhaustivePollingSystem.monitor "Probability C1_1_1_0_5" 0.0016793368352009
scalar DynamicExhaustivePollingSystem.monitor "Probability C1_1_1_0_6" 0.0006271739224755
scalar DynamicExhaustivePollingSystem.monitor "Probability C1_1_1_0_7" 0.00025836030984719
scalar DynamicExhaustivePollingSystem.monitor "Probability C1_1_1_0_8" 0.00010220574677508
scalar DynamicExhaustivePollingSystem.monitor "Probability C1_1_1_0_9" 3.9254861719563e-05
scalar DynamicExhaustivePollingSystem.monitor "Probability C1_1_1_0_10" 2.5547134524495e-05
scalar DynamicExhaustivePollingSystem.monitor "Probability C1_1_1_0_11" 4.3245128672947e-06
scalar DynamicExhaustivePollingSystem.monitor "Probability C1_1_1_0_12" 6.3655837454011e-06
scalar DynamicExhaustivePollingSystem.monitor "Probability C1_1_1_0_13" 1.8705798525163e-06
scalar DynamicExhaustivePollingSystem.monitor "Probability C1_1_1_0_14" 2.1687746200449e-06
scalar DynamicExhaustivePollingSystem.monitor "Probability C1_1_1_0_15" 5.3264694181906e-08
scalar DynamicExhaustivePollingSystem.monitor "Probability C1_1_1_0_16" 0
scalar DynamicExhaustivePollingSystem.monitor "Probability C1_1_1_0_17" 0
scalar DynamicExhaustivePollingSystem.monitor "Probability C1_1_1_0_18" 0
scalar DynamicExhaustivePollingSystem.monitor "Probability C1_1_1_0_19" 0
scalar DynamicExhaustivePollingSystem.monitor "Probability C1_1_1_1_0" 0.7334320247335
scalar DynamicExhaustivePollingSystem.monitor "Probability C1_1_1_1_1" 0.05147136461797
scalar DynamicExhaustivePollingSystem.monitor "Probability C1_1_1_1_2" 0.0038201962821822
scalar DynamicExhaustivePollingSystem.monitor "Probability C1_1_1_1_3" 0.00051775135451089
scalar DynamicExhaustivePollingSystem.monitor "Probability C1_1_1_1_4" 0.00015735341526177
scalar DynamicExhaustivePollingSystem.monitor "Probability C1_1_1_1_5" 5.970914005408e-05
scalar DynamicExhaustivePollingSystem.monitor "Probability C1_1_1_1_6" 4.3744232285874e-05
scalar DynamicExhaustivePollingSystem.monitor "Probability C1_1_1_1_7" 1.0541861392119e-05
scalar DynamicExhaustivePollingSystem.monitor "Probability C1_1_1_1_8" 1.3853307451581e-06
scalar DynamicExhaustivePollingSystem.monitor "Probability C1_1_1_1_9" 2.2986309176578e-06
scalar DynamicExhaustivePollingSystem.monitor "Probability C1_1_1_1_10" 0
scalar DynamicExhaustivePollingSystem.monitor "Probability C1_1_1_1_11" 0
scalar DynamicExhaustivePollingSystem.monitor "Probability C1_1_1_1_12" 0
scalar DynamicExhaustivePollingSystem.monitor "Probability C1_1_1_1_13" 5.3605905299943e-07
scalar DynamicExhaustivePollingSystem.monitor "Probability C1_1_1_1_14" 0
scalar DynamicExhaustivePollingSystem.monitor "Probability C1_1_1_1_15" 0
scalar DynamicExhaustivePollingSystem.monitor "Probability C1_1_1_1_16" 0
scalar DynamicExhaustivePollingSystem.monitor "Probability C1_1_1_1_17" 0
scalar DynamicExhaustivePollingSystem.monitor "Probability C1_1_1_1_18" 0
scalar DynamicExhaustivePollingSystem.monitor "Probability C1_1_1_1_19" 0
scalar DynamicExhaustivePollingSystem.monitor "Probability C1_1_1_2_0" 0.093758939184468
scalar DynamicExhaustivePollingSystem.monitor "Probability C1_1_1_2_1" 0.0054972691734827
scalar DynamicExhaustivePollingSystem.monitor "Probability C1_1_1_2_2" 0.00039586812446129
scalar DynamicExhaustivePollingSystem.monitor "Probability C1_1_1_2_3" 3.3767290558893e-05
scalar DynamicExhaustivePollingSystem.monitor "Probability C1_1_1_2_4" 7.0137002982979e-06
scalar DynamicExhaustivePollingSystem.monitor "Probability C1_1_1_2_5" 8.6712159970671e-06
scalar DynamicExhaustivePollingSystem.monitor "Probability C1_1_1_2_6" 4.0146877407455e-06
scalar DynamicExhaustivePollingSystem.monitor "Probability C1_1_1_2_7" 0
scalar DynamicExhaustivePollingSystem.monitor "Probability C1_1_1_2_8" 0
scalar DynamicExhaustivePollingSystem.monitor "Probability C1_1_1_2_9" 0
scalar DynamicExhaustivePollingSystem.monitor "Probability C1_1_1_2_10" 0
scalar DynamicExhaustivePollingSystem.monitor "Probability C1_1_1_2_11" 0
scalar DynamicExhaustivePollingSystem.monitor "Probability C1_1_1_2_12" 0
scalar DynamicExhaustivePollingSystem.monitor "Probability C1_1_1_2_13" 0
scalar DynamicExhaustivePollingSystem.monitor "Probability C1_1_1_2_14" 0
scalar DynamicExhaustivePollingSystem.monitor "Probability C1_1_1_2_15" 0
scalar DynamicExhaustivePollingSystem.monitor "Probability C1_1_1_2_16" 0
scalar DynamicExhaustivePollingSystem.monitor "Probability C1_1_1_2_17" 0
scalar DynamicExhaustivePollingSystem.monitor "Probability C1_1_1_2_18" 0
scalar DynamicExhaustivePollingSystem.monitor "Probability C1_1_1_2_19" 0
scalar DynamicExhaustivePollingSystem.monitor "Probability C1_1_1_3_0" 0.020366503773529
scalar DynamicExhaustivePollingSystem.monitor "Probability C1_1_1_3_1" 0.00074633339400793
scalar DynamicExhaustivePollingSystem.monitor "Probability C1_1_1_3_2" 5.9769718489695e-05
scalar DynamicExhaustivePollingSystem.monitor "Probability C1_1_1_3_3" 2.3573588100974e-06
scalar DynamicExhaustivePollingSystem.monitor "Probability C1_1_1_3_4" 0
scalar DynamicExhaustivePollingSystem.monitor "Probability C1_1_1_3_5" 5.6835783642246e-07
scalar DynamicExhaustivePollingSystem.monitor "Probability C1_1_1_3_6" 0
scalar DynamicExhaustivePollingSystem.monitor "Probability C1_1_1_3_7" 0
scalar DynamicExhaustivePollingSystem.monitor "Probability C1_1_1_3_8" 0
scalar DynamicExhaustivePollingSystem.monitor "Probability C1_1_1_3_9" 0
scalar DynamicExhaustivePollingSystem.monitor "Probability C1_1_1_3_10" 0
scalar DynamicExhaustivePollingSystem.monitor "Probability C1_1_1_3_11" 0
scalar DynamicExhaustivePollingSystem.monitor "Probability C1_1_1_3_12" 0
scalar DynamicExhaustivePollingSystem.monitor "Probability C1_1_1_3_13" 0
scalar DynamicExhaustivePollingSystem.monitor "Probability C1_1_1_3_14" 0
scalar DynamicExhaustivePollingSystem.monitor "Probability C1_1_1_3_15" 0
scalar DynamicExhaustivePollingSystem.monitor "Probability C1_1_1_3_16" 0
scalar DynamicExhaustivePollingSystem.monitor "Probability C1_1_1_3_17" 0
scalar DynamicExhaustivePollingSystem.monitor "Probability C1_1_1_3_18" 0
scalar DynamicExhaustivePollingSystem.monitor "Probability C1_1_1_3_19" 0
scalar DynamicExhaustivePollingSystem.monitor "Probability C1_1_1_4_0" 0.0066870436617176
scalar DynamicExhaustivePollingSystem.monitor "Probability C1_1_1_4_1" 0.00013381695377336
scalar DynamicExhaustivePollingSystem.monitor "Probability C1_1_1_4_2" 4.3957568282415e-06
scalar DynamicExhaustivePollingSystem.monitor "Probability C1_1_1_4_3" 0
scalar DynamicExhaustivePollingSystem.monitor "Probability C1_1_1_4_4" 0
scalar DynamicExhaustivePollingSystem.monitor "Probability C1_1_1_4_5" 0
scalar DynamicExhaustivePollingSystem.monitor "Probability C1_1_1_4_6" 0
scalar DynamicExhaustivePollingSystem.monitor "Probability C1_1_1_4_7" 0
scalar DynamicExhaustivePollingSystem.monitor "Probability C1_1_1_4_8" 0
scalar DynamicExhaustivePollingSystem.monitor "Probability C1_1_1_4_9" 0
scalar DynamicExhaustivePollingSystem.monitor "Probability C1_1_1_4_10" 0
scalar DynamicExhaustivePollingSystem.monitor "Probability C1_1_1_4_11" 0
scalar DynamicExhaustivePollingSystem.monitor "Probability C1_1_1_4_12" 0
scalar DynamicExhaustivePollingSystem.monitor "Probability C1_1_1_4_13" 0
scalar DynamicExhaustivePollingSystem.monitor "Probability C1_1_1_4_14" 0
scalar DynamicExhaustivePollingSystem.monitor "Probability C1_1_1_4_15" 0
scalar DynamicExhaustivePollingSystem.monitor "Probability C1_1_1_4_16" 0
scalar DynamicExhaustivePollingSystem.monitor "Probability C1_1_1_4_17" 0
scalar DynamicExhaustivePollingSystem.monitor "Probability C1_1_1_4_18" 0
scalar DynamicExhaustivePollingSystem.monitor "Probability C1_1_1_4_19" 0
scalar DynamicExhaustivePollingSystem.monitor "Probability C1_1_1_5_0" 0.0025526796190688
scalar DynamicExhaustivePollingSystem.monitor "Probability C1_1_1_5_1" 4.8176395939665e-05
scalar DynamicExhaustivePollingSystem.monitor "Probability C1_1_1_5_2" 4.3765917790348e-07
scalar DynamicExhaustivePollingSystem.monitor "Probability C1_1_1_5_3" 0
scalar DynamicExhaustivePollingSystem.monitor "Probability C1_1_1_5_4" 0
scalar DynamicExhaustivePollingSystem.monitor "Probability C1_1_1_5_5" 0
scalar DynamicExhaustivePollingSystem.monitor "Probability C1_1_1_5_6" 0
scalar DynamicExhaustivePollingSystem.monitor "Probability C1_1_1_5_7" 0
scalar DynamicExhaustivePollingSystem.monitor "Probability C1_1_1_5_8" 0
scalar DynamicExhaustivePollingSystem.monitor "Probability C1_1_1_5_9" 0
scalar DynamicExhaustivePollingSystem.monitor "Probability C1_1_1_5_10" 0
scalar DynamicExhaustivePollingSystem.monitor "Probability C1_1_1_5_11" 0
scalar DynamicExhaustivePollingSystem.monitor "Probability C1_1_1_5_12" 0
scalar DynamicExhaustivePollingSystem.monitor "Probability C1_1_1_5_13" 0
scalar DynamicExhaustivePollingSystem.monitor "Probability C1_1_1_5_14" 0
scalar DynamicExhaustivePollingSystem.monitor "Probability C1_1_1_5_15" 0
scalar DynamicExhaustivePollingSystem.monitor "Probability C1_1_1_5_16" 0
scalar DynamicExhaustivePollingSystem.monitor "Probability C1_1_1_5_17" 0
scalar DynamicExhaustivePollingSystem.monitor "Probability C1_1_1_5_18" 0
scalar DynamicExhaustivePollingSystem.monitor "Probability C1_1_1_5_19" 0
scalar DynamicExhaustivePollingSystem.monitor "Probability C1_1_1_6_0" 0.00099178115758348
scalar DynamicExhaustivePollingSystem.monitor "Probability C1_1_1_6_1" 1.9055246184877e-05
scalar DynamicExhaustivePollingSystem.monitor "Probability C1_1_1_6_2" 3.0260392355867e-07
scalar DynamicExhaustivePollingSystem.monitor "Probability C1_1_1_6_3" 0
scalar DynamicExhaustivePollingSystem.monitor "Probability C1_1_1_6_4" 0
scalar DynamicExhaustivePollingSystem.monitor "Probability C1_1_1_6_5" 0
scalar DynamicExhaustivePollingSystem.monitor "Probability C1_1_1_6_6" 0
scalar DynamicExhaustivePollingSystem.monitor "Probability C1_1_1_6_7" 0
scalar DynamicExhaustivePollingSystem.monitor "Probability C1_1_1_6_8" 0
scalar DynamicExhaustivePollingSystem.monitor "Probability C1_1_1_6_9" 0
scalar DynamicExhaustivePollingSystem.monitor "Probability C1_1_1_6_10" 0
scalar DynamicExhaustivePollingSystem.monitor "Probability C1_1_1_6_11" 0
scalar DynamicExhaustivePollingSystem.monitor "Probability C1_1_1_6_12" 0
scalar DynamicExhaustivePollingSystem.monitor "Probability C1_1_1_6_13" 0
scalar DynamicExhaustivePollingSystem.monitor "Probability C1_1_1_6_14" 0
scalar DynamicExhaustivePollingSystem.monitor "Probability C1_1_1_6_15" 0
scalar DynamicExhaustivePollingSystem.monitor "Probability C1_1_1_6_16" 0
scalar DynamicExhaustivePollingSystem.monitor "Probability C1_1_1_6_17" 0
scalar DynamicExhaustivePollingSystem.monitor "Probability C1_1_1_6_18" 0
scalar DynamicExhaustivePollingSystem.monitor "Probability C1_1_1_6_19" 0
scalar DynamicExhaustivePollingSystem.monitor "Probability C1_1_1_7_0" 0.00045560213244138
scalar DynamicExhaustivePollingSystem.monitor "Probability C1_1_1_7_1" 1.0300610929396e-05
scalar DynamicExhaustivePollingSystem.monitor "Probability C1_1_1_7_2" 0
scalar DynamicExhaustivePollingSystem.monitor "Probability C1_1_1_7_3" 0
scalar DynamicExhaustivePollingSystem.monitor "Probability C1_1_1_7_4" 0
scalar DynamicExhaustivePollingSystem.monitor "Probability C1_1_1_7_5" 0
scalar DynamicExhaustivePollingSystem.monitor "Probability C1_1_1_7_6" 0
scalar DynamicExhaustivePollingSystem.monitor "Probability C1_1_1_7_7" 0
scalar DynamicExhaustivePollingSystem.monitor "Probability C1_1_1_7_8" 0
scalar DynamicExhaustivePollingSystem.monitor "Probability C1_1_1_7_9" 0
scalar DynamicExhaustivePollingSystem.monitor "Probability C1_1_1_7_10" 0
scalar DynamicExhaustivePollingSystem.monitor "Probability C1_1_1_7_11" 0
scalar DynamicExhaustivePollingSystem.monitor "Probability C1_1_1_7_12" 0
scalar DynamicExhaustivePollingSystem.monitor "Probability C1_1_1_7_13" 0
scalar DynamicExhaustivePollingSystem.monitor "Probability C1_1_1_7_14" 0
scalar DynamicExhaustivePollingSystem.monitor "Probability C1_1_1_7_15" 0
scalar DynamicExhaustivePollingSystem.monitor "Probability C1_1_1_7_16" 0
scalar DynamicExhaustivePollingSystem.monitor "Probability C1_1_1_7_17" 0
scalar DynamicExhaustivePollingSystem.monitor "Probability C1_1_1_7_18" 0
scalar DynamicExhaustivePollingSystem.monitor "Probability C1_1_1_7_19" 0
scalar DynamicExhaustivePollingSystem.monitor "Probability C1_1_1_8_0" 0.00019630500697462
scalar DynamicExhaustivePollingSystem.monitor "Probability C1_1_1_8_1" 6.4948569388907e-06
scalar DynamicExhaustivePollingSystem.monitor "Probability C1_1_1_8_2" 0
scalar DynamicExhaustivePollingSystem.monitor "Probability C1_1_1_8_3" 0
scalar DynamicExhaustivePollingSystem.monitor "Probability C1_1_1_8_4" 0
scalar DynamicExhaustivePollingSystem.monitor "Probability C1_1_1_8_5" 0
scalar DynamicExhaustivePollingSystem.monitor "Probability C1_1_1_8_6" 0
scalar DynamicExhaustivePollingSystem.monitor "Probability C1_1_1_8_7" 0
scalar DynamicExhaustivePollingSystem.monitor "Probability C1_1_1_8_8" 0
scalar DynamicExhaustivePollingSystem.monitor "Probability C1_1_1_8_9" 0
scalar DynamicExhaustivePollingSystem.monitor "Probability C1_1_1_8_10" 0
scalar DynamicExhaustivePollingSystem.monitor "Probability C1_1_1_8_11" 0
scalar DynamicExhaustivePollingSystem.monitor "Probability C1_1_1_8_12" 0
scalar DynamicExhaustivePollingSystem.monitor "Probability C1_1_1_8_13" 0
scalar DynamicExhaustivePollingSystem.monitor "Probability C1_1_1_8_14" 0
scalar DynamicExhaustivePollingSystem.monitor "Probability C1_1_1_8_15" 0
scalar DynamicExhaustivePollingSystem.monitor "Probability C1_1_1_8_16" 0
scalar DynamicExhaustivePollingSystem.monitor "Probability C1_1_1_8_17" 0
scalar DynamicExhaustivePollingSystem.monitor "Probability C1_1_1_8_18" 0
scalar DynamicExhaustivePollingSystem.monitor "Probability C1_1_1_8_19" 0
scalar DynamicExhaustivePollingSystem.monitor "Probability C1_1_1_9_0" 0.00010016142955296
scalar DynamicExhaustivePollingSystem.monitor "Probability C1_1_1_9_1" 1.7832500247984e-06
scalar DynamicExhaustivePollingSystem.monitor "Probability C1_1_1_9_2" 0
scalar DynamicExhaustivePollingSystem.monitor "Probability C1_1_1_9_3" 0
scalar DynamicExhaustivePollingSystem.monitor "Probability C1_1_1_9_4" 0
scalar DynamicExhaustivePollingSystem.monitor "Probability C1_1_1_9_5" 0
scalar DynamicExhaustivePollingSystem.monitor "Probability C1_1_1_9_6" 0
scalar DynamicExhaustivePollingSystem.monitor "Probability C1_1_1_9_7" 0
scalar DynamicExhaustivePollingSystem.monitor "Probability C1_1_1_9_8" 0
scalar DynamicExhaustivePollingSystem.monitor "Probability C1_1_1_9_9" 0
scalar DynamicExhaustivePollingSystem.monitor "Probability C1_1_1_9_10" 0
scalar DynamicExhaustivePollingSystem.monitor "Probability C1_1_1_9_11" 0
scalar DynamicExhaustivePollingSystem.monitor "Probability C1_1_1_9_12" 0
scalar DynamicExhaustivePollingSystem.monitor "Probability C1_1_1_9_13" 0
scalar DynamicExhaustivePollingSystem.monitor "Probability C1_1_1_9_14" 0
scalar DynamicExhaustivePollingSystem.monitor "Probability C1_1_1_9_15" 0
scalar DynamicExhaustivePollingSystem.monitor "Probability C1_1_1_9_16" 0
scalar DynamicExhaustivePollingSystem.monitor "Probability C1_1_1_9_17" 0
scalar DynamicExhaustivePollingSystem.monitor "Probability C1_1_1_9_18" 0
scalar DynamicExhaustivePollingSystem.monitor "Probability C1_1_1_9_19" 0
scalar DynamicExhaustivePollingSystem.monitor "Probability C1_1_1_10_0" 3.1679313296045e-05
scalar DynamicExhaustivePollingSystem.monitor "Probability C1_1_1_10_1" 0
scalar DynamicExhaustivePollingSystem.monitor "Probability C1_1_1_10_2" 0
scalar DynamicExhaustivePollingSystem.monitor "Probability C1_1_1_10_3" 0
scalar DynamicExhaustivePollingSystem.monitor "Probability C1_1_1_10_4" 0
scalar DynamicExhaustivePollingSystem.monitor "Probability C1_1_1_10_5" 0
scalar DynamicExhaustivePollingSystem.monitor "Probability C1_1_1_10_6" 0
scalar DynamicExhaustivePollingSystem.monitor "Probability C1_1_1_10_7" 0
scalar DynamicExhaustivePollingSystem.monitor "Probability C1_1_1_10_8" 0
scalar DynamicExhaustivePollingSystem.monitor "Probability C1_1_1_10_9" 0
scalar DynamicExhaustivePollingSystem.monitor "Probability C1_1_1_10_10" 0
scalar DynamicExhaustivePollingSystem.monitor "Probability C1_1_1_10_11" 0
scalar DynamicExhaustivePollingSystem.monitor "Probability C1_1_1_10_12" 0
scalar DynamicExhaustivePollingSystem.monitor "Probability C1_1_1_10_13" 0
scalar DynamicExhaustivePollingSystem.monitor "Probability C1_1_1_10_14" 0
scalar DynamicExhaustivePollingSystem.monitor "Probability C1_1_1_10_15" 0
scalar DynamicExhaustivePollingSystem.monitor "Probability C1_1_1_10_16" 0
scalar DynamicExhaustivePollingSystem.monitor "Probability C1_1_1_10_17" 0
scalar DynamicExhaustivePollingSystem.monitor "Probability C1_1_1_10_18" 0
scalar DynamicExhaustivePollingSystem.monitor "Probability C1_1_1_10_19" 0
scalar DynamicExhaustivePollingSystem.monitor "Probability C1_1_1_11_0" 1.3929990021112e-05
scalar DynamicExhaustivePollingSystem.monitor "Probability C1_1_1_11_1" 0
scalar DynamicExhaustivePollingSystem.monitor "Probability C1_1_1_11_2" 0
scalar DynamicExhaustivePollingSystem.monitor "Probability C1_1_1_11_3" 0
scalar DynamicExhaustivePollingSystem.monitor "Probability C1_1_1_11_4" 0
scalar DynamicExhaustivePollingSystem.monitor "Probability C1_1_1_11_5" 0
scalar DynamicExhaustivePollingSystem.monitor "Probability C1_1_1_11_6" 0
scalar DynamicExhaustivePollingSystem.monitor "Probability C1_1_1_11_7" 0
scalar DynamicExhaustivePollingSystem.monitor "Probability C1_1_1_11_8" 0
scalar DynamicExhaustivePollingSystem.monitor "Probability C1_1_1_11_9" 0
scalar DynamicExhaustivePollingSystem.monitor "Probability C1_1_1_11_10" 0
scalar DynamicExhaustivePollingSystem.monitor "Probability C1_1_1_11_11" 0
scalar DynamicExhaustivePollingSystem.monitor "Probability C1_1_1_11_12" 0
scalar DynamicExhaustivePollingSystem.monitor "Probability C1_1_1_11_13" 0
scalar DynamicExhaustivePollingSystem.monitor "Probability C1_1_1_11_14" 0
scalar DynamicExhaustivePollingSystem.monitor "Probability C1_1_1_11_15" 0
scalar DynamicExhaustivePollingSystem.monitor "Probability C1_1_1_11_16" 0
scalar DynamicExhaustivePollingSystem.monitor "Probability C1_1_1_11_17" 0
scalar DynamicExhaustivePollingSystem.monitor "Probability C1_1_1_11_18" 0
scalar DynamicExhaustivePollingSystem.monitor "Probability C1_1_1_11_19" 0
scalar DynamicExhaustivePollingSystem.monitor "Probability C1_1_1_12_0" 1.7280455117705e-06
scalar DynamicExhaustivePollingSystem.monitor "Probability C1_1_1_12_1" 0
scalar DynamicExhaustivePollingSystem.monitor "Probability C1_1_1_12_2" 0
scalar DynamicExhaustivePollingSystem.monitor "Probability C1_1_1_12_3" 0
scalar DynamicExhaustivePollingSystem.monitor "Probability C1_1_1_12_4" 0
scalar DynamicExhaustivePollingSystem.monitor "Probability C1_1_1_12_5" 0
scalar DynamicExhaustivePollingSystem.monitor "Probability C1_1_1_12_6" 0
scalar DynamicExhaustivePollingSystem.monitor "Probability C1_1_1_12_7" 0
scalar DynamicExhaustivePollingSystem.monitor "Probability C1_1_1_12_8" 0
scalar DynamicExhaustivePollingSystem.monitor "Probability C1_1_1_12_9" 0
scalar DynamicExhaustivePollingSystem.monitor "Probability C1_1_1_12_10" 0
scalar DynamicExhaustivePollingSystem.monitor "Probability C1_1_1_12_11" 0
scalar DynamicExhaustivePollingSystem.monitor "Probability C1_1_1_12_12" 0
scalar DynamicExhaustivePollingSystem.monitor "Probability C1_1_1_12_13" 0
scalar DynamicExhaustivePollingSystem.monitor "Probability C1_1_1_12_14" 0
scalar DynamicExhaustivePollingSystem.monitor "Probability C1_1_1_12_15" 0
scalar DynamicExhaustivePollingSystem.monitor "Probability C1_1_1_12_16" 0
scalar DynamicExhaustivePollingSystem.monitor "Probability C1_1_1_12_17" 0
scalar DynamicExhaustivePollingSystem.monitor "Probability C1_1_1_12_18" 0
scalar DynamicExhaustivePollingSystem.monitor "Probability C1_1_1_12_19" 0
scalar DynamicExhaustivePollingSystem.monitor "Probability C1_1_1_13_0" 4.0973974541947e-06
scalar DynamicExhaustivePollingSystem.monitor "Probability C1_1_1_13_1" 0
scalar DynamicExhaustivePollingSystem.monitor "Probability C1_1_1_13_2" 0
scalar DynamicExhaustivePollingSystem.monitor "Probability C1_1_1_13_3" 0
scalar DynamicExhaustivePollingSystem.monitor "Probability C1_1_1_13_4" 0
scalar DynamicExhaustivePollingSystem.monitor "Probability C1_1_1_13_5" 0
scalar DynamicExhaustivePollingSystem.monitor "Probability C1_1_1_13_6" 0
scalar DynamicExhaustivePollingSystem.monitor "Probability C1_1_1_13_7" 0
scalar DynamicExhaustivePollingSystem.monitor "Probability C1_1_1_13_8" 0
scalar DynamicExhaustivePollingSystem.monitor "Probability C1_1_1_13_9" 0
scalar DynamicExhaustivePollingSystem.monitor "Probability C1_1_1_13_10" 0
scalar DynamicExhaustivePollingSystem.monitor "Probability C1_1_1_13_11" 0
scalar DynamicExhaustivePollingSystem.monitor "Probability C1_1_1_13_12" 0
scalar DynamicExhaustivePollingSystem.monitor "Probability C1_1_1_13_13" 0
scalar DynamicExhaustivePollingSystem.monitor "Probability C1_1_1_13_14" 0
scalar DynamicExhaustivePollingSystem.monitor "Probability C1_1_1_13_15" 0
scalar DynamicExhaustivePollingSystem.monitor "Probability C1_1_1_13_16" 0
scalar DynamicExhaustivePollingSystem.monitor "Probability C1_1_1_13_17" 0
scalar DynamicExhaustivePollingSystem.monitor "Probability C1_1_1_13_18" 0
scalar DynamicExhaustivePollingSystem.monitor "Probability C1_1_1_13_19" 0
scalar DynamicExhaustivePollingSystem.monitor "Probability C1_1_1_14_0" 3.5815602021687e-06
scalar DynamicExhaustivePollingSystem.monitor "Probability C1_1_1_14_1" 0
scalar DynamicExhaustivePollingSystem.monitor "Probability C1_1_1_14_2" 0
scalar DynamicExhaustivePollingSystem.monitor "Probability C1_1_1_14_3" 0
scalar DynamicExhaustivePollingSystem.monitor "Probability C1_1_1_14_4" 0
scalar DynamicExhaustivePollingSystem.monitor "Probability C1_1_1_14_5" 0
scalar DynamicExhaustivePollingSystem.monitor "Probability C1_1_1_14_6" 0
scalar DynamicExhaustivePollingSystem.monitor "Probability C1_1_1_14_7" 0
scalar DynamicExhaustivePollingSystem.monitor "Probability C1_1_1_14_8" 0
scalar DynamicExhaustivePollingSystem.monitor "Probability C1_1_1_14_9" 0
scalar DynamicExhaustivePollingSystem.monitor "Probability C1_1_1_14_10" 0
scalar DynamicExhaustivePollingSystem.monitor "Probability C1_1_1_14_11" 0
scalar DynamicExhaustivePollingSystem.monitor "Probability C1_1_1_14_12" 0
scalar DynamicExhaustivePollingSystem.monitor "Probability C1_1_1_14_13" 0
scalar DynamicExhaustivePollingSystem.monitor "Probability C1_1_1_14_14" 0
scalar DynamicExhaustivePollingSystem.monitor "Probability C1_1_1_14_15" 0
scalar DynamicExhaustivePollingSystem.monitor "Probability C1_1_1_14_16" 0
scalar DynamicExhaustivePollingSystem.monitor "Probability C1_1_1_14_17" 0
scalar DynamicExhaustivePollingSystem.monitor "Probability C1_1_1_14_18" 0
scalar DynamicExhaustivePollingSystem.monitor "Probability C1_1_1_14_19" 0
scalar DynamicExhaustivePollingSystem.monitor "Probability C1_1_1_15_0" 3.6206502001053e-06
scalar DynamicExhaustivePollingSystem.monitor "Probability C1_1_1_15_1" 0
scalar DynamicExhaustivePollingSystem.monitor "Probability C1_1_1_15_2" 0
scalar DynamicExhaustivePollingSystem.monitor "Probability C1_1_1_15_3" 0
scalar DynamicExhaustivePollingSystem.monitor "Probability C1_1_1_15_4" 0
scalar DynamicExhaustivePollingSystem.monitor "Probability C1_1_1_15_5" 0
scalar DynamicExhaustivePollingSystem.monitor "Probability C1_1_1_15_6" 0
scalar DynamicExhaustivePollingSystem.monitor "Probability C1_1_1_15_7" 0
scalar DynamicExhaustivePollingSystem.monitor "Probability C1_1_1_15_8" 0
scalar DynamicExhaustivePollingSystem.monitor "Probability C1_1_1_15_9" 0
scalar DynamicExhaustivePollingSystem.monitor "Probability C1_1_1_15_10" 0
scalar DynamicExhaustivePollingSystem.monitor "Probability C1_1_1_15_11" 0
scalar DynamicExhaustivePollingSystem.monitor "Probability C1_1_1_15_12" 0
scalar DynamicExhaustivePollingSystem.monitor "Probability C1_1_1_15_13" 0
scalar DynamicExhaustivePollingSystem.monitor "Probability C1_1_1_15_14" 0
scalar DynamicExhaustivePollingSystem.monitor "Probability C1_1_1_15_15" 0
scalar DynamicExhaustivePollingSystem.monitor "Probability C1_1_1_15_16" 0
scalar DynamicExhaustivePollingSystem.monitor "Probability C1_1_1_15_17" 0
scalar DynamicExhaustivePollingSystem.monitor "Probability C1_1_1_15_18" 0
scalar DynamicExhaustivePollingSystem.monitor "Probability C1_1_1_15_19" 0
scalar DynamicExhaustivePollingSystem.monitor "Probability C1_1_1_16_0" 0
scalar DynamicExhaustivePollingSystem.monitor "Probability C1_1_1_16_1" 0
scalar DynamicExhaustivePollingSystem.monitor "Probability C1_1_1_16_2" 0
scalar DynamicExhaustivePollingSystem.monitor "Probability C1_1_1_16_3" 0
scalar DynamicExhaustivePollingSystem.monitor "Probability C1_1_1_16_4" 0
scalar DynamicExhaustivePollingSystem.monitor "Probability C1_1_1_16_5" 0
scalar DynamicExhaustivePollingSystem.monitor "Probability C1_1_1_16_6" 0
scalar DynamicExhaustivePollingSystem.monitor "Probability C1_1_1_16_7" 0
scalar DynamicExhaustivePollingSystem.monitor "Probability C1_1_1_16_8" 0
scalar DynamicExhaustivePollingSystem.monitor "Probability C1_1_1_16_9" 0
scalar DynamicExhaustivePollingSystem.monitor "Probability C1_1_1_16_10" 0
scalar DynamicExhaustivePollingSystem.monitor "Probability C1_1_1_16_11" 0
scalar DynamicExhaustivePollingSystem.monitor "Probability C1_1_1_16_12" 0
scalar DynamicExhaustivePollingSystem.monitor "Probability C1_1_1_16_13" 0
scalar DynamicExhaustivePollingSystem.monitor "Probability C1_1_1_16_14" 0
scalar DynamicExhaustivePollingSystem.monitor "Probability C1_1_1_16_15" 0
scalar DynamicExhaustivePollingSystem.monitor "Probability C1_1_1_16_16" 0
scalar DynamicExhaustivePollingSystem.monitor "Probability C1_1_1_16_17" 0
scalar DynamicExhaustivePollingSystem.monitor "Probability C1_1_1_16_18" 0
scalar DynamicExhaustivePollingSystem.monitor "Probability C1_1_1_16_19" 0
scalar DynamicExhaustivePollingSystem.monitor "Probability C1_1_1_17_0" 0
scalar DynamicExhaustivePollingSystem.monitor "Probability C1_1_1_17_1" 0
scalar DynamicExhaustivePollingSystem.monitor "Probability C1_1_1_17_2" 0
scalar DynamicExhaustivePollingSystem.monitor "Probability C1_1_1_17_3" 0
scalar DynamicExhaustivePollingSystem.monitor "Probability C1_1_1_17_4" 0
scalar DynamicExhaustivePollingSystem.monitor "Probability C1_1_1_17_5" 0
scalar DynamicExhaustivePollingSystem.monitor "Probability C1_1_1_17_6" 0
scalar DynamicExhaustivePollingSystem.monitor "Probability C1_1_1_17_7" 0
scalar DynamicExhaustivePollingSystem.monitor "Probability C1_1_1_17_8" 0
scalar DynamicExhaustivePollingSystem.monitor "Probability C1_1_1_17_9" 0
scalar DynamicExhaustivePollingSystem.monitor "Probability C1_1_1_17_10" 0
scalar DynamicExhaustivePollingSystem.monitor "Probability C1_1_1_17_11" 0
scalar DynamicExhaustivePollingSystem.monitor "Probability C1_1_1_17_12" 0
scalar DynamicExhaustivePollingSystem.monitor "Probability C1_1_1_17_13" 0
scalar DynamicExhaustivePollingSystem.monitor "Probability C1_1_1_17_14" 0
scalar DynamicExhaustivePollingSystem.monitor "Probability C1_1_1_17_15" 0
scalar DynamicExhaustivePollingSystem.monitor "Probability C1_1_1_17_16" 0
scalar DynamicExhaustivePollingSystem.monitor "Probability C1_1_1_17_17" 0
scalar DynamicExhaustivePollingSystem.monitor "Probability C1_1_1_17_18" 0
scalar DynamicExhaustivePollingSystem.monitor "Probability C1_1_1_17_19" 0
scalar DynamicExhaustivePollingSystem.monitor "Probability C1_1_1_18_0" 0
scalar DynamicExhaustivePollingSystem.monitor "Probability C1_1_1_18_1" 0
scalar DynamicExhaustivePollingSystem.monitor "Probability C1_1_1_18_2" 0
scalar DynamicExhaustivePollingSystem.monitor "Probability C1_1_1_18_3" 0
scalar DynamicExhaustivePollingSystem.monitor "Probability C1_1_1_18_4" 0
scalar DynamicExhaustivePollingSystem.monitor "Probability C1_1_1_18_5" 0
scalar DynamicExhaustivePollingSystem.monitor "Probability C1_1_1_18_6" 0
scalar DynamicExhaustivePollingSystem.monitor "Probability C1_1_1_18_7" 0
scalar DynamicExhaustivePollingSystem.monitor "Probability C1_1_1_18_8" 0
scalar DynamicExhaustivePollingSystem.monitor "Probability C1_1_1_18_9" 0
scalar DynamicExhaustivePollingSystem.monitor "Probability C1_1_1_18_10" 0
scalar DynamicExhaustivePollingSystem.monitor "Probability C1_1_1_18_11" 0
scalar DynamicExhaustivePollingSystem.monitor "Probability C1_1_1_18_12" 0
scalar DynamicExhaustivePollingSystem.monitor "Probability C1_1_1_18_13" 0
scalar DynamicExhaustivePollingSystem.monitor "Probability C1_1_1_18_14" 0
scalar DynamicExhaustivePollingSystem.monitor "Probability C1_1_1_18_15" 0
scalar DynamicExhaustivePollingSystem.monitor "Probability C1_1_1_18_16" 0
scalar DynamicExhaustivePollingSystem.monitor "Probability C1_1_1_18_17" 0
scalar DynamicExhaustivePollingSystem.monitor "Probability C1_1_1_18_18" 0
scalar DynamicExhaustivePollingSystem.monitor "Probability C1_1_1_18_19" 0
scalar DynamicExhaustivePollingSystem.monitor "Probability C1_1_1_19_0" 0
scalar DynamicExhaustivePollingSystem.monitor "Probability C1_1_1_19_1" 0
scalar DynamicExhaustivePollingSystem.monitor "Probability C1_1_1_19_2" 0
scalar DynamicExhaustivePollingSystem.monitor "Probability C1_1_1_19_3" 0
scalar DynamicExhaustivePollingSystem.monitor "Probability C1_1_1_19_4" 0
scalar DynamicExhaustivePollingSystem.monitor "Probability C1_1_1_19_5" 0
scalar DynamicExhaustivePollingSystem.monitor "Probability C1_1_1_19_6" 0
scalar DynamicExhaustivePollingSystem.monitor "Probability C1_1_1_19_7" 0
scalar DynamicExhaustivePollingSystem.monitor "Probability C1_1_1_19_8" 0
scalar DynamicExhaustivePollingSystem.monitor "Probability C1_1_1_19_9" 0
scalar DynamicExhaustivePollingSystem.monitor "Probability C1_1_1_19_10" 0
scalar DynamicExhaustivePollingSystem.monitor "Probability C1_1_1_19_11" 0
scalar DynamicExhaustivePollingSystem.monitor "Probability C1_1_1_19_12" 0
scalar DynamicExhaustivePollingSystem.monitor "Probability C1_1_1_19_13" 0
scalar DynamicExhaustivePollingSystem.monitor "Probability C1_1_1_19_14" 0
scalar DynamicExhaustivePollingSystem.monitor "Probability C1_1_1_19_15" 0
scalar DynamicExhaustivePollingSystem.monitor "Probability C1_1_1_19_16" 0
scalar DynamicExhaustivePollingSystem.monitor "Probability C1_1_1_19_17" 0
scalar DynamicExhaustivePollingSystem.monitor "Probability C1_1_1_19_18" 0
scalar DynamicExhaustivePollingSystem.monitor "Probability C1_1_1_19_19" 0
scalar DynamicExhaustivePollingSystem.monitor "Probability C1_1_0_0_0" 10.615243280128
scalar DynamicExhaustivePollingSystem.monitor "Probability C1_1_0_0_1" 0.20277157718159
scalar DynamicExhaustivePollingSystem.monitor "Probability C1_1_0_0_2" 0.0039073987856449
scalar DynamicExhaustivePollingSystem.monitor "Probability C1_1_0_0_3" 8.262635707642e-05
scalar DynamicExhaustivePollingSystem.monitor "Probability C1_1_0_0_4" 7.3166798181573e-07
scalar DynamicExhaustivePollingSystem.monitor "Probability C1_1_0_0_5" 0
scalar DynamicExhaustivePollingSystem.monitor "Probability C1_1_0_0_6" 0
scalar DynamicExhaustivePollingSystem.monitor "Probability C1_1_0_0_7" 0
scalar DynamicExhaustivePollingSystem.monitor "Probability C1_1_0_0_8" 0
scalar DynamicExhaustivePollingSystem.monitor "Probability C1_1_0_0_9" 0
scalar DynamicExhaustivePollingSystem.monitor "Probability C1_1_0_0_10" 0
scalar DynamicExhaustivePollingSystem.monitor "Probability C1_1_0_0_11" 0
scalar DynamicExhaustivePollingSystem.monitor "Probability C1_1_0_0_12" 0
scalar DynamicExhaustivePollingSystem.monitor "Probability C1_1_0_0_13" 0
scalar DynamicExhaustivePollingSystem.monitor "Probability C1_1_0_0_14" 0
scalar DynamicExhaustivePollingSystem.monitor "Probability C1_1_0_0_15" 0
scalar DynamicExhaustivePollingSystem.monitor "Probability C1_1_0_0_16" 0
scalar DynamicExhaustivePollingSystem.monitor "Probability C1_1_0_0_17" 0
scalar DynamicExhaustivePollingSystem.monitor "Probability C1_1_0_0_18" 0
scalar DynamicExhaustivePollingSystem.monitor "Probability C1_1_0_0_19" 0
scalar DynamicExhaustivePollingSystem.monitor "Probability C1_1_0_1_0" 0.72873717879782
scalar DynamicExhaustivePollingSystem.monitor "Probability C1_1_0_1_1" 0.019980482470894
scalar DynamicExhaustivePollingSystem.monitor "Probability C1_1_0_1_2" 0.0004914770379999
scalar DynamicExhaustivePollingSystem.monitor "Probability C1_1_0_1_3" 3.8584806163383e-06
scalar DynamicExhaustivePollingSystem.monitor "Probability C1_1_0_1_4" 0
scalar DynamicExhaustivePollingSystem.monitor "Probability C1_1_0_1_5" 0
scalar DynamicExhaustivePollingSystem.monitor "Probability C1_1_0_1_6" 0
scalar DynamicExhaustivePollingSystem.monitor "Probability C1_1_0_1_7" 0
scalar DynamicExhaustivePollingSystem.monitor "Probability C1_1_0_1_8" 0
scalar DynamicExhaustivePollingSystem.monitor "Probability C1_1_0_1_9" 0
scalar DynamicExhaustivePollingSystem.monitor "Probability C1_1_0_1_10" 0
scalar DynamicExhaustivePollingSystem.monitor "Probability C1_1_0_1_11" 0
scalar DynamicExhaustivePollingSystem.monitor "Probability C1_1_0_1_12" 0
scalar DynamicExhaustivePollingSystem.monitor "Probability C1_1_0_1_13" 0
scalar DynamicExhaustivePollingSystem.monitor "Probability C1_1_0_1_14" 0
scalar DynamicExhaustivePollingSystem.monitor "Probability C1_1_0_1_15" 0
scalar DynamicExhaustivePollingSystem.monitor "Probability C1_1_0_1_16" 0
scalar DynamicExhaustivePollingSystem.monitor "Probability C1_1_0_1_17" 0
scalar DynamicExhaustivePollingSystem.monitor "Probability C1_1_0_1_18" 0
scalar DynamicExhaustivePollingSystem.monitor "Probability C1_1_0_1_19" 0
scalar DynamicExhaustivePollingSystem.monitor "Probability C1_1_0_2_0" 0.071900713392548
scalar DynamicExhaustivePollingSystem.monitor "Probability C1_1_0_2_1" 0.0019899445644086
scalar DynamicExhaustivePollingSystem.monitor "Probability C1_1_0_2_2" 4.6714911442069e-05
scalar DynamicExhaustivePollingSystem.monitor "Probability C1_1_0_2_3" 2.8756538057158e-06
scalar DynamicExhaustivePollingSystem.monitor "Probability C1_1_0_2_4" 0
scalar DynamicExhaustivePollingSystem.monitor "Probability C1_1_0_2_5" 0
scalar DynamicExhaustivePollingSystem.monitor "Probability C1_1_0_2_6" 0
scalar DynamicExhaustivePollingSystem.monitor "Probability C1_1_0_2_7" 0
scalar DynamicExhaustivePollingSystem.monitor "Probability C1_1_0_2_8" 0
scalar DynamicExhaustivePollingSystem.monitor "Probability C1_1_0_2_9" 0
scalar DynamicExhaustivePollingSystem.monitor "Probability C1_1_0_2_10" 0
scalar DynamicExhaustivePollingSystem.monitor "Probability C1_1_0_2_11" 0
scalar DynamicExhaustivePollingSystem.monitor "Probability C1_1_0_2_12" 0
scalar DynamicExhaustivePollingSystem.monitor "Probability C1_1_0_2_13" 0
scalar DynamicExhaustivePollingSystem.monitor "Probability C1_1_0_2_14" 0
scalar DynamicExhaustivePollingSystem.monitor "Probability C1_1_0_2_15" 0
scalar DynamicExhaustivePollingSystem.monitor "Probability C1_1_0_2_16" 0
scalar DynamicExhaustivePollingSystem.monitor "Probability C1_1_0_2_17" 0
scalar DynamicExhaustivePollingSystem.monitor "Probability C1_1_0_2_18" 0
scalar DynamicExhaustivePollingSystem.monitor "Probability C1_1_0_2_19" 0
scalar DynamicExhaustivePollingSystem.monitor "Probability C1_1_0_3_0" 0.016514081393771
scalar DynamicExhaustivePollingSystem.monitor "Probability C1_1_0_3_1" 0.0003503261798178
scalar DynamicExhaustivePollingSystem.monitor "Probability C1_1_0_3_2" 9.768667464792e-06
scalar DynamicExhaustivePollingSystem.monitor "Probability C1_1_0_3_3" 1.1809772304342e-06
scalar DynamicExhaustivePollingSystem.monitor "Probability C1_1_0_3_4" 0
scalar DynamicExhaustivePollingSystem.monitor "Probability C1_1_0_3_5" 0
scalar DynamicExhaustivePollingSystem.monitor "Probability C1_1_0_3_6" 0
scalar DynamicExhaustivePollingSystem.monitor "Probability C1_1_0_3_7" 0
scalar DynamicExhaustivePollingSystem.monitor "Probability C1_1_0_3_8" 0
scalar DynamicExhaustivePollingSystem.monitor "Probability C1_1_0_3_9" 0
scalar DynamicExhaustivePollingSystem.monitor "Probability C1_1_0_3_10" 0
scalar DynamicExhaustivePollingSystem.monitor "Probability C1_1_0_3_11" 0
scalar DynamicExhaustivePollingSystem.monitor "Probability C1_1_0_3_12" 0
scalar DynamicExhaustivePollingSystem.monitor "Probability C1_1_0_3_13" 0
scalar DynamicExhaustivePollingSystem.monitor "Probability C1_1_0_3_14" 0
scalar DynamicExhaustivePollingSystem.monitor "Probability C1_1_0_3_15" 0
scalar DynamicExhaustivePollingSystem.monitor "Probability C1_1_0_3_16" 0
scalar DynamicExhaustivePollingSystem.monitor "Probability C1_1_0_3_17" 0
scalar DynamicExhaustivePollingSystem.monitor "Probability C1_1_0_3_18" 0
scalar DynamicExhaustivePollingSystem.monitor "Probability C1_1_0_3_19" 0
scalar DynamicExhaustivePollingSystem.monitor "Probability C1_1_0_4_0" 0.0056677670916362
scalar DynamicExhaustivePollingSystem.monitor "Probability C1_1_0_4_1" 0.00012291171430762
scalar DynamicExhaustivePollingSystem.monitor "Probability C1_1_0_4_2" 2.4283207500895e-06
scalar DynamicExhaustivePollingSystem.monitor "Probability C1_1_0_4_3" 0
scalar DynamicExhaustivePollingSystem.monitor "Probability C1_1_0_4_4" 0
scalar DynamicExhaustivePollingSystem.monitor "Probability C1_1_0_4_5" 0
scalar DynamicExhaustivePollingSystem.monitor "Probability C1_1_0_4_6" 0
scalar DynamicExhaustivePollingSystem.monitor "Probability C1_1_0_4_7" 0
scalar DynamicExhaustivePollingSystem.monitor "Probability C1_1_0_4_8" 0
scalar DynamicExhaustivePollingSystem.monitor "Probability C1_1_0_4_9" 0
scalar DynamicExhaustivePollingSystem.monitor "Probability C1_1_0_4_10" 0
scalar DynamicExhaustivePollingSystem.monitor "Probability C1_1_0_4_11" 0
scalar DynamicExhaustivePollingSystem.monitor "Probability C1_1_0_4_12" 0
scalar DynamicExhaustivePollingSystem.monitor "Probability C1_1_0_4_13" 0
scalar DynamicExhaustivePollingSystem.monitor "Probability C1_1_0_4_14" 0
scalar DynamicExhaustivePollingSystem.monitor "Probability C1_1_0_4_15" 0
scalar DynamicExhaustivePollingSystem.monitor "Probability C1_1_0_4_16" 0
scalar DynamicExhaustivePollingSystem.monitor "Probability C1_1_0_4_17" 0
scalar DynamicExhaustivePollingSystem.monitor "Probability C1_1_0_4_18" 0
scalar DynamicExhaustivePollingSystem.monitor "Probability C1_1_0_4_19" 0
scalar DynamicExhaustivePollingSystem.monitor "Probability C1_1_0_5_0" 0.0021335523043531
scalar DynamicExhaustivePollingSystem.monitor "Probability C1_1_0_5_1" 3.4688929748645e-05
scalar DynamicExhaustivePollingSystem.monitor "Probability C1_1_0_5_2" 0
scalar DynamicExhaustivePollingSystem.monitor "Probability C1_1_0_5_3" 0
scalar DynamicExhaustivePollingSystem.monitor "Probability C1_1_0_5_4" 0
scalar DynamicExhaustivePollingSystem.monitor "Probability C1_1_0_5_5" 0
scalar DynamicExhaustivePollingSystem.monitor "Probability C1_1_0_5_6" 0
scalar DynamicExhaustivePollingSystem.monitor "Probability C1_1_0_5_7" 0
scalar DynamicExhaustivePollingSystem.monitor "Probability C1_1_0_5_8" 0
scalar DynamicExhaustivePollingSystem.monitor "Probability C1_1_0_5_9" 0
scalar DynamicExhaustivePollingSystem.monitor "Probability C1_1_0_5_10" 0
scalar DynamicExhaustivePollingSystem.monitor "Probability C1_1_0_5_11" 0
scalar DynamicExhaustivePollingSystem.monitor "Probability C1_1_0_5_12" 0
scalar DynamicExhaustivePollingSystem.monitor "Probability C1_1_0_5_13" 0
scalar DynamicExhaustivePollingSystem.monitor "Probability C1_1_0_5_14" 0
scalar DynamicExhaustivePollingSystem.monitor "Probability C1_1_0_5_15" 0
scalar DynamicExhaustivePollingSystem.monitor "Probability C1_1_0_5_16" 0
scalar DynamicExhaustivePollingSystem.monitor "Probability C1_1_0_5_17" 0
scalar DynamicExhaustivePollingSystem.monitor "Probability C1_1_0_5_18" 0
scalar DynamicExhaustivePollingSystem.monitor "Probability C1_1_0_5_19" 0
scalar DynamicExhaustivePollingSystem.monitor "Probability C1_1_0_6_0" 0.00085338881588606
scalar DynamicExhaustivePollingSystem.monitor "Probability C1_1_0_6_1" 2.5636527540011e-05
scalar DynamicExhaustivePollingSystem.monitor "Probability C1_1_0_6_2" 5.8587595743804e-07
scalar DynamicExhaustivePollingSystem.monitor "Probability C1_1_0_6_3" 0
scalar DynamicExhaustivePollingSystem.monitor "Probability C1_1_0_6_4" 0
scalar DynamicExhaustivePollingSystem.monitor "Probability C1_1_0_6_5" 0
scalar DynamicExhaustivePollingSystem.monitor "Probability C1_1_0_6_6" 0
scalar DynamicExhaustivePollingSystem.monitor "Probability C1_1_0_6_7" 0
scalar DynamicExhaustivePollingSystem.monitor "Probability C1_1_0_6_8" 0
scalar DynamicExhaustivePollingSystem.monitor "Probability C1_1_0_6_9" 0
scalar DynamicExhaustivePollingSystem.monitor "Probability C1_1_0_6_10" 0
scalar DynamicExhaustivePollingSystem.monitor "Probability C1_1_0_6_11" 0
scalar DynamicExhaustivePollingSystem.monitor "Probability C1_1_0_6_12" 0
scalar DynamicExhaustivePollingSystem.monitor "Probability C1_1_0_6_13" 0
scalar DynamicExhaustivePollingSystem.monitor "Probability C1_1_0_6_14" 0
scalar DynamicExhaustivePollingSystem.monitor "Probability C1_1_0_6_15" 0
scalar DynamicExhaustivePollingSystem.monitor "Probability C1_1_0_6_16" 0
scalar DynamicExhaustivePollingSystem.monitor "Probability C1_1_0_6_17" 0
scalar DynamicExhaustivePollingSystem.monitor "Probability C1_1_0_6_18" 0
scalar DynamicExhaustivePollingSystem.monitor "Probability C1_1_0_6_19" 0
scalar DynamicExhaustivePollingSystem.monitor "Probability C1_1_0_7_0" 0.00040165865948877
scalar DynamicExhaustivePollingSystem.monitor "Probability C1_1_0_7_1" 9.1766706732379e-06
scalar DynamicExhaustivePollingSystem.monitor "Probability C1_1_0_7_2" 0
scalar DynamicExhaustivePollingSystem.monitor "Probability C1_1_0_7_3" 0
scalar DynamicExhaustivePollingSystem.monitor "Probability C1_1_0_7_4" 0
scalar DynamicExhaustivePollingSystem.monitor "Probability C1_1_0_7_5" 0
scalar DynamicExhaustivePollingSystem.monitor "Probability C1_1_0_7_6" 0
scalar DynamicExhaustivePollingSystem.monitor "Probability C1_1_0_7_7" 0
scalar DynamicExhaustivePollingSystem.monitor "Probability C1_1_0_7_8" 0
scalar DynamicExhaustivePollingSystem.monitor "Probability C1_1_0_7_9" 0
scalar DynamicExhaustivePollingSystem.monitor "Probability C1_1_0_7_10" 0
scalar DynamicExhaustivePollingSystem.monitor "Probability C1_1_0_7_11" 0
scalar DynamicExhaustivePollingSystem.monitor "Probability C1_1_0_7_12" 0
scalar DynamicExhaustivePollingSystem.monitor "Probability C1_1_0_7_13" 0
scalar DynamicExhaustivePollingSystem.monitor "Probability C1_1_0_7_14" 0
scalar DynamicExhaustivePollingSystem.monitor "Probability C1_1_0_7_15" 0
scalar DynamicExhaustivePollingSystem.monitor "Probability C1_1_0_7_16" 0
scalar DynamicExhaustivePollingSystem.monitor "Probability C1_1_0_7_17" 0
scalar DynamicExhaustivePollingSystem.monitor "Probability C1_1_0_7_18" 0
scalar DynamicExhaustivePollingSystem.monitor "Probability C1_1_0_7_19" 0
scalar DynamicExhaustivePollingSystem.monitor "Probability C1_1_0_8_0" 0.00018848363724324
scalar DynamicExhaustivePollingSystem.monitor "Probability C1_1_0_8_1" 3.3842190424019e-06
scalar DynamicExhaustivePollingSystem.monitor "Probability C1_1_0_8_2" 0
scalar DynamicExhaustivePollingSystem.monitor "Probability C1_1_0_8_3" 0
scalar DynamicExhaustivePollingSystem.monitor "Probability C1_1_0_8_4" 0
scalar DynamicExhaustivePollingSystem.monitor "Probability C1_1_0_8_5" 0
scalar DynamicExhaustivePollingSystem.monitor "Probability C1_1_0_8_6" 0
scalar DynamicExhaustivePollingSystem.monitor "Probability C1_1_0_8_7" 0
scalar DynamicExhaustivePollingSystem.monitor "Probability C1_1_0_8_8" 0
scalar DynamicExhaustivePollingSystem.monitor "Probability C1_1_0_8_9" 0
scalar DynamicExhaustivePollingSystem.monitor "Probability C1_1_0_8_10" 0
scalar DynamicExhaustivePollingSystem.monitor "Probability C1_1_0_8_11" 0
scalar DynamicExhaustivePollingSystem.monitor "Probability C1_1_0_8_12" 0
scalar DynamicExhaustivePollingSystem.monitor "Probability C1_1_0_8_13" 0
scalar DynamicExhaustivePollingSystem.monitor "Probability C1_1_0_8_14" 0
scalar DynamicExhaustivePollingSystem.monitor "Probability C1_1_0_8_15" 0
scalar DynamicExhaustivePollingSystem.monitor "Probability C1_1_0_8_16" 0
scalar DynamicExhaustivePollingSystem.monitor "Probability C1_1_0_8_17" 0
scalar DynamicExhaustivePollingSystem.monitor "Probability C1_1_0_8_18" 0
scalar DynamicExhaustivePollingSystem.monitor "Probability C1_1_0_8_19" 0
scalar DynamicExhaustivePollingSystem.monitor "Probability C1_1_0_9_0" 7.228862998195e-05
scalar DynamicExhaustivePollingSystem.monitor "Probability C1_1_0_9_1" 1.5958630376925e-07
scalar DynamicExhaustivePollingSystem.monitor "Probability C1_1_0_9_2" 0
scalar DynamicExhaustivePollingSystem.monitor "Probability C1_1_0_9_3" 0
scalar DynamicExhaustivePollingSystem.monitor "Probability C1_1_0_9_4" 0
scalar DynamicExhaustivePollingSystem.monitor "Probability C1_1_0_9_5" 0
scalar DynamicExhaustivePollingSystem.monitor "Probability C1_1_0_9_6" 0
scalar DynamicExhaustivePollingSystem.monitor "Probability C1_1_0_9_7" 0
scalar DynamicExhaustivePollingSystem.monitor "Probability C1_1_0_9_8" 0
scalar DynamicExhaustivePollingSystem.monitor "Probability C1_1_0_9_9" 0
scalar DynamicExhaustivePollingSystem.monitor "Probability C1_1_0_9_10" 0
scalar DynamicExhaustivePollingSystem.monitor "Probability C1_1_0_9_11" 0
scalar DynamicExhaustivePollingSystem.monitor "Probability C1_1_0_9_12" 0
scalar DynamicExhaustivePollingSystem.monitor "Probability C1_1_0_9_13" 0
scalar DynamicExhaustivePollingSystem.monitor "Probability C1_1_0_9_14" 0
scalar DynamicExhaustivePollingSystem.monitor "Probability C1_1_0_9_15" 0
scalar DynamicExhaustivePollingSystem.monitor "Probability C1_1_0_9_16" 0
scalar DynamicExhaustivePollingSystem.monitor "Probability C1_1_0_9_17" 0
scalar DynamicExhaustivePollingSystem.monitor "Probability C1_1_0_9_18" 0
scalar DynamicExhaustivePollingSystem.monitor "Probability C1_1_0_9_19" 0
scalar DynamicExhaustivePollingSystem.monitor "Probability C1_1_0_10_0" 3.4285497861696e-05
scalar DynamicExhaustivePollingSystem.monitor "Probability C1_1_0_10_1" 0
scalar DynamicExhaustivePollingSystem.monitor "Probability C1_1_0_10_2" 0
scalar DynamicExhaustivePollingSystem.monitor "Probability C1_1_0_10_3" 0
scalar DynamicExhaustivePollingSystem.monitor "Probability C1_1_0_10_4" 0
scalar DynamicExhaustivePollingSystem.monitor "Probability C1_1_0_10_5" 0
scalar DynamicExhaustivePollingSystem.monitor "Probability C1_1_0_10_6" 0
scalar DynamicExhaustivePollingSystem.monitor "Probability C1_1_0_10_7" 0
scalar DynamicExhaustivePollingSystem.monitor "Probability C1_1_0_10_8" 0
scalar DynamicExhaustivePollingSystem.monitor "Probability C1_1_0_10_9" 0
scalar DynamicExhaustivePollingSystem.monitor "Probability C1_1_0_10_10" 0
scalar DynamicExhaustivePollingSystem.monitor "Probability C1_1_0_10_11" 0
scalar DynamicExhaustivePollingSystem.monitor "Probability C1_1_0_10_12" 0
scalar DynamicExhaustivePollingSystem.monitor "Probability C1_1_0_10_13" 0
scalar DynamicExhaustivePollingSystem.monitor "Probability C1_1_0_10_14" 0
scalar DynamicExhaustivePollingSystem.monitor "Probability C1_1_0_10_15" 0
scalar DynamicExhaustivePollingSystem.monitor "Probability C1_1_0_10_16" 0
scalar DynamicExhaustivePollingSystem.monitor "Probability C1_1_0_10_17" 0
scalar DynamicExhaustivePollingSystem.monitor "Probability C1_1_0_10_18" 0
scalar DynamicExhaustivePollingSystem.monitor "Probability C1_1_0_10_19" 0
scalar DynamicExhaustivePollingSystem.monitor "Probability C1_1_0_11_0" 1.7088043462741e-05
scalar DynamicExhaustivePollingSystem.monitor "Probability C1_1_0_11_1" 0
scalar DynamicExhaustivePollingSystem.monitor "Probability C1_1_0_11_2" 0
scalar DynamicExhaustivePollingSystem.monitor "Probability C1_1_0_11_3" 0
scalar DynamicExhaustivePollingSystem.monitor "Probability C1_1_0_11_4" 0
scalar DynamicExhaustivePollingSystem.monitor "Probability C1_1_0_11_5" 0
scalar DynamicExhaustivePollingSystem.monitor "Probability C1_1_0_11_6" 0
scalar DynamicExhaustivePollingSystem.monitor "Probability C1_1_0_11_7" 0
scalar DynamicExhaustivePollingSystem.monitor "Probability C1_1_0_11_8" 0
scalar DynamicExhaustivePollingSystem.monitor "Probability C1_1_0_11_9" 0
scalar DynamicExhaustivePollingSystem.monitor "Probability C1_1_0_11_10" 0
scalar DynamicExhaustivePollingSystem.monitor "Probability C1_1_0_11_11" 0
scalar DynamicExhaustivePollingSystem.monitor "Probability C1_1_0_11_12" 0
scalar DynamicExhaustivePollingSystem.monitor "Probability C1_1_0_11_13" 0
scalar DynamicExhaustivePollingSystem.monitor "Probability C1_1_0_11_14" 0
scalar DynamicExhaustivePollingSystem.monitor "Probability C1_1_0_11_15" 0
scalar DynamicExhaustivePollingSystem.monitor "Probability C1_1_0_11_16" 0
scalar DynamicExhaustivePollingSystem.monitor "Probability C1_1_0_11_17" 0
scalar DynamicExhaustivePollingSystem.monitor "Probability C1_1_0_11_18" 0
scalar DynamicExhaustivePollingSystem.monitor "Probability C1_1_0_11_19" 0
scalar DynamicExhaustivePollingSystem.monitor "Probability C1_1_0_12_0" 5.9791391120218e-06
scalar DynamicExhaustivePollingSystem.monitor "Probability C1_1_0_12_1" 0
scalar DynamicExhaustivePollingSystem.monitor "Probability C1_1_0_12_2" 0
scalar DynamicExhaustivePollingSystem.monitor "Probability C1_1_0_12_3" 0
scalar DynamicExhaustivePollingSystem.monitor "Probability C1_1_0_12_4" 0
scalar DynamicExhaustivePollingSystem.monitor "Probability C1_1_0_12_5" 0
scalar DynamicExhaustivePollingSystem.monitor "Probability C1_1_0_12_6" 0
scalar DynamicExhaustivePollingSystem.monitor "Probability C1_1_0_12_7" 0
scalar DynamicExhaustivePollingSystem.monitor "Probability C1_1_0_12_8" 0
scalar DynamicExhaustivePollingSystem.monitor "Probability C1_1_0_12_9" 0
scalar DynamicExhaustivePollingSystem.monitor "Probability C1_1_0_12_10" 0
scalar DynamicExhaustivePollingSystem.monitor "Probability C1_1_0_12_11" 0
scalar DynamicExhaustivePollingSystem.monitor "Probability C1_1_0_12_12" 0
scalar DynamicExhaustivePollingSystem.monitor "Probability C1_1_0_12_13" 0
scalar DynamicExhaustivePollingSystem.monitor "Probability C1_1_0_12_14" 0
scalar DynamicExhaustivePollingSystem.monitor "Probability C1_1_0_12_15" 0
scalar DynamicExhaustivePollingSystem.monitor "Probability C1_1_0_12_16" 0
scalar DynamicExhaustivePollingSystem.monitor "Probability C1_1_0_12_17" 0
scalar DynamicExhaustivePollingSystem.monitor "Probability C1_1_0_12_18" 0
scalar DynamicExhaustivePollingSystem.monitor "Probability C1_1_0_12_19" 0
scalar DynamicExhaustivePollingSystem.monitor "Probability C1_1_0_13_0" 1.5780071568645e-06
scalar DynamicExhaustivePollingSystem.monitor "Probability C1_1_0_13_1" 8.838572917461e-07
scalar DynamicExhaustivePollingSystem.monitor "Probability C1_1_0_13_2" 0
scalar DynamicExhaustivePollingSystem.monitor "Probability C1_1_0_13_3" 0
scalar DynamicExhaustivePollingSystem.monitor "Probability C1_1_0_13_4" 0
scalar DynamicExhaustivePollingSystem.monitor "Probability C1_1_0_13_5" 0
scalar DynamicExhaustivePollingSystem.monitor "Probability C1_1_0_13_6" 0
scalar DynamicExhaustivePollingSystem.monitor "Probability C1_1_0_13_7" 0
scalar DynamicExhaustivePollingSystem.monitor "Probability C1_1_0_13_8" 0
scalar DynamicExhaustivePollingSystem.monitor "Probability C1_1_0_13_9" 0
scalar DynamicExhaustivePollingSystem.monitor "Probability C1_1_0_13_10" 0
scalar DynamicExhaustivePollingSystem.monitor "Probability C1_1_0_13_11" 0
scalar DynamicExhaustivePollingSystem.monitor "Probability C1_1_0_13_12" 0
scalar DynamicExhaustivePollingSystem.monitor "Probability C1_1_0_13_13" 0
scalar DynamicExhaustivePollingSystem.monitor "Probability C1_1_0_13_14" 0
scalar DynamicExhaustivePollingSystem.monitor "Probability C1_1_0_13_15" 0
scalar DynamicExhaustivePollingSystem.monitor "Probability C1_1_0_13_16" 0
scalar DynamicExhaustivePollingSystem.monitor "Probability C1_1_0_13_17" 0
scalar DynamicExhaustivePollingSystem.monitor "Probability C1_1_0_13_18" 0
scalar DynamicExhaustivePollingSystem.monitor "Probability C1_1_0_13_19" 0
scalar DynamicExhaustivePollingSystem.monitor "Probability C1_1_0_14_0" 1.5566398008026e-06
scalar DynamicExhaustivePollingSystem.monitor "Probability C1_1_0_14_1" 0
scalar DynamicExhaustivePollingSystem.monitor "Probability C1_1_0_14_2" 0
scalar DynamicExhaustivePollingSystem.monitor "Probability C1_1_0_14_3" 0
scalar DynamicExhaustivePollingSystem.monitor "Probability C1_1_0_14_4" 0
scalar DynamicExhaustivePollingSystem.monitor "Probability C1_1_0_14_5" 0
scalar DynamicExhaustivePollingSystem.monitor "Probability C1_1_0_14_6" 0
scalar DynamicExhaustivePollingSystem.monitor "Probability C1_1_0_14_7" 0
scalar DynamicExhaustivePollingSystem.monitor "Probability C1_1_0_14_8" 0
scalar DynamicExhaustivePollingSystem.monitor "Probability C1_1_0_14_9" 0
scalar DynamicExhaustivePollingSystem.monitor "Probability C1_1_0_14_10" 0
scalar DynamicExhaustivePollingSystem.monitor "Probability C1_1_0_14_11" 0
scalar DynamicExhaustivePollingSystem.monitor "Probability C1_1_0_14_12" 0
scalar DynamicExhaustivePollingSystem.monitor "Probability C1_1_0_14_13" 0
scalar DynamicExhaustivePollingSystem.monitor "Probability C1_1_0_14_14" 0
scalar DynamicExhaustivePollingSystem.monitor "Probability C1_1_0_14_15" 0
scalar DynamicExhaustivePollingSystem.monitor "Probability C1_1_0_14_16" 0
scalar DynamicExhaustivePollingSystem.monitor "Probability C1_1_0_14_17" 0
scalar DynamicExhaustivePollingSystem.monitor "Probability C1_1_0_14_18" 0
scalar DynamicExhaustivePollingSystem.monitor "Probability C1_1_0_14_19" 0
scalar DynamicExhaustivePollingSystem.monitor "Probability C1_1_0_15_0" 3.3494017707566e-08
scalar DynamicExhaustivePollingSystem.monitor "Probability C1_1_0_15_1" 0
scalar DynamicExhaustivePollingSystem.monitor "Probability C1_1_0_15_2" 0
scalar DynamicExhaustivePollingSystem.monitor "Probability C1_1_0_15_3" 0
scalar DynamicExhaustivePollingSystem.monitor "Probability C1_1_0_15_4" 0
scalar DynamicExhaustivePollingSystem.monitor "Probability C1_1_0_15_5" 0
scalar DynamicExhaustivePollingSystem.monitor "Probability C1_1_0_15_6" 0
scalar DynamicExhaustivePollingSystem.monitor "Probability C1_1_0_15_7" 0
scalar DynamicExhaustivePollingSystem.monitor "Probability C1_1_0_15_8" 0
scalar DynamicExhaustivePollingSystem.monitor "Probability C1_1_0_15_9" 0
scalar DynamicExhaustivePollingSystem.monitor "Probability C1_1_0_15_10" 0
scalar DynamicExhaustivePollingSystem.monitor "Probability C1_1_0_15_11" 0
scalar DynamicExhaustivePollingSystem.monitor "Probability C1_1_0_15_12" 0
scalar DynamicExhaustivePollingSystem.monitor "Probability C1_1_0_15_13" 0
scalar DynamicExhaustivePollingSystem.monitor "Probability C1_1_0_15_14" 0
scalar DynamicExhaustivePollingSystem.monitor "Probability C1_1_0_15_15" 0
scalar DynamicExhaustivePollingSystem.monitor "Probability C1_1_0_15_16" 0
scalar DynamicExhaustivePollingSystem.monitor "Probability C1_1_0_15_17" 0
scalar DynamicExhaustivePollingSystem.monitor "Probability C1_1_0_15_18" 0
scalar DynamicExhaustivePollingSystem.monitor "Probability C1_1_0_15_19" 0
scalar DynamicExhaustivePollingSystem.monitor "Probability C1_1_0_16_0" 2.0766636537932e-06
scalar DynamicExhaustivePollingSystem.monitor "Probability C1_1_0_16_1" 0
scalar DynamicExhaustivePollingSystem.monitor "Probability C1_1_0_16_2" 0
scalar DynamicExhaustivePollingSystem.monitor "Probability C1_1_0_16_3" 0
scalar DynamicExhaustivePollingSystem.monitor "Probability C1_1_0_16_4" 0
scalar DynamicExhaustivePollingSystem.monitor "Probability C1_1_0_16_5" 0
scalar DynamicExhaustivePollingSystem.monitor "Probability C1_1_0_16_6" 0
scalar DynamicExhaustivePollingSystem.monitor "Probability C1_1_0_16_7" 0
scalar DynamicExhaustivePollingSystem.monitor "Probability C1_1_0_16_8" 0
scalar DynamicExhaustivePollingSystem.monitor "Probability C1_1_0_16_9" 0
scalar DynamicExhaustivePollingSystem.monitor "Probability C1_1_0_16_10" 0
scalar DynamicExhaustivePollingSystem.monitor "Probability C1_1_0_16_11" 0
scalar DynamicExhaustivePollingSystem.monitor "Probability C1_1_0_16_12" 0
scalar DynamicExhaustivePollingSystem.monitor "Probability C1_1_0_16_13" 0
scalar DynamicExhaustivePollingSystem.monitor "Probability C1_1_0_16_14" 0
scalar DynamicExhaustivePollingSystem.monitor "Probability C1_1_0_16_15" 0
scalar DynamicExhaustivePollingSystem.monitor "Probability C1_1_0_16_16" 0
scalar DynamicExhaustivePollingSystem.monitor "Probability C1_1_0_16_17" 0
scalar DynamicExhaustivePollingSystem.monitor "Probability C1_1_0_16_18" 0
scalar DynamicExhaustivePollingSystem.monitor "Probability C1_1_0_16_19" 0
scalar DynamicExhaustivePollingSystem.monitor "Probability C1_1_0_17_0" 0
scalar DynamicExhaustivePollingSystem.monitor "Probability C1_1_0_17_1" 0
scalar DynamicExhaustivePollingSystem.monitor "Probability C1_1_0_17_2" 0
scalar DynamicExhaustivePollingSystem.monitor "Probability C1_1_0_17_3" 0
scalar DynamicExhaustivePollingSystem.monitor "Probability C1_1_0_17_4" 0
scalar DynamicExhaustivePollingSystem.monitor "Probability C1_1_0_17_5" 0
scalar DynamicExhaustivePollingSystem.monitor "Probability C1_1_0_17_6" 0
scalar DynamicExhaustivePollingSystem.monitor "Probability C1_1_0_17_7" 0
scalar DynamicExhaustivePollingSystem.monitor "Probability C1_1_0_17_8" 0
scalar DynamicExhaustivePollingSystem.monitor "Probability C1_1_0_17_9" 0
scalar DynamicExhaustivePollingSystem.monitor "Probability C1_1_0_17_10" 0
scalar DynamicExhaustivePollingSystem.monitor "Probability C1_1_0_17_11" 0
scalar DynamicExhaustivePollingSystem.monitor "Probability C1_1_0_17_12" 0
scalar DynamicExhaustivePollingSystem.monitor "Probability C1_1_0_17_13" 0
scalar DynamicExhaustivePollingSystem.monitor "Probability C1_1_0_17_14" 0
scalar DynamicExhaustivePollingSystem.monitor "Probability C1_1_0_17_15" 0
scalar DynamicExhaustivePollingSystem.monitor "Probability C1_1_0_17_16" 0
scalar DynamicExhaustivePollingSystem.monitor "Probability C1_1_0_17_17" 0
scalar DynamicExhaustivePollingSystem.monitor "Probability C1_1_0_17_18" 0
scalar DynamicExhaustivePollingSystem.monitor "Probability C1_1_0_17_19" 0
scalar DynamicExhaustivePollingSystem.monitor "Probability C1_1_0_18_0" 0
scalar DynamicExhaustivePollingSystem.monitor "Probability C1_1_0_18_1" 0
scalar DynamicExhaustivePollingSystem.monitor "Probability C1_1_0_18_2" 0
scalar DynamicExhaustivePollingSystem.monitor "Probability C1_1_0_18_3" 0
scalar DynamicExhaustivePollingSystem.monitor "Probability C1_1_0_18_4" 0
scalar DynamicExhaustivePollingSystem.monitor "Probability C1_1_0_18_5" 0
scalar DynamicExhaustivePollingSystem.monitor "Probability C1_1_0_18_6" 0
scalar DynamicExhaustivePollingSystem.monitor "Probability C1_1_0_18_7" 0
scalar DynamicExhaustivePollingSystem.monitor "Probability C1_1_0_18_8" 0
scalar DynamicExhaustivePollingSystem.monitor "Probability C1_1_0_18_9" 0
scalar DynamicExhaustivePollingSystem.monitor "Probability C1_1_0_18_10" 0
scalar DynamicExhaustivePollingSystem.monitor "Probability C1_1_0_18_11" 0
scalar DynamicExhaustivePollingSystem.monitor "Probability C1_1_0_18_12" 0
scalar DynamicExhaustivePollingSystem.monitor "Probability C1_1_0_18_13" 0
scalar DynamicExhaustivePollingSystem.monitor "Probability C1_1_0_18_14" 0
scalar DynamicExhaustivePollingSystem.monitor "Probability C1_1_0_18_15" 0
scalar DynamicExhaustivePollingSystem.monitor "Probability C1_1_0_18_16" 0
scalar DynamicExhaustivePollingSystem.monitor "Probability C1_1_0_18_17" 0
scalar DynamicExhaustivePollingSystem.monitor "Probability C1_1_0_18_18" 0
scalar DynamicExhaustivePollingSystem.monitor "Probability C1_1_0_18_19" 0
scalar DynamicExhaustivePollingSystem.monitor "Probability C1_1_0_19_0" 5.4263709796709e-07
scalar DynamicExhaustivePollingSystem.monitor "Probability C1_1_0_19_1" 0
scalar DynamicExhaustivePollingSystem.monitor "Probability C1_1_0_19_2" 0
scalar DynamicExhaustivePollingSystem.monitor "Probability C1_1_0_19_3" 0
scalar DynamicExhaustivePollingSystem.monitor "Probability C1_1_0_19_4" 0
scalar DynamicExhaustivePollingSystem.monitor "Probability C1_1_0_19_5" 0
scalar DynamicExhaustivePollingSystem.monitor "Probability C1_1_0_19_6" 0
scalar DynamicExhaustivePollingSystem.monitor "Probability C1_1_0_19_7" 0
scalar DynamicExhaustivePollingSystem.monitor "Probability C1_1_0_19_8" 0
scalar DynamicExhaustivePollingSystem.monitor "Probability C1_1_0_19_9" 0
scalar DynamicExhaustivePollingSystem.monitor "Probability C1_1_0_19_10" 0
scalar DynamicExhaustivePollingSystem.monitor "Probability C1_1_0_19_11" 0
scalar DynamicExhaustivePollingSystem.monitor "Probability C1_1_0_19_12" 0
scalar DynamicExhaustivePollingSystem.monitor "Probability C1_1_0_19_13" 0
scalar DynamicExhaustivePollingSystem.monitor "Probability C1_1_0_19_14" 0
scalar DynamicExhaustivePollingSystem.monitor "Probability C1_1_0_19_15" 0
scalar DynamicExhaustivePollingSystem.monitor "Probability C1_1_0_19_16" 0
scalar DynamicExhaustivePollingSystem.monitor "Probability C1_1_0_19_17" 0
scalar DynamicExhaustivePollingSystem.monitor "Probability C1_1_0_19_18" 0
scalar DynamicExhaustivePollingSystem.monitor "Probability C1_1_0_19_19" 0
scalar DynamicExhaustivePollingSystem.monitor "Probability C2_1_1_0_0" 11.14897327536
scalar DynamicExhaustivePollingSystem.monitor "Probability C2_1_1_0_1" 0.58739001736454
scalar DynamicExhaustivePollingSystem.monitor "Probability C2_1_1_0_2" 0.064714355519343
scalar DynamicExhaustivePollingSystem.monitor "Probability C2_1_1_0_3" 0.016643200065981
scalar DynamicExhaustivePollingSystem.monitor "Probability C2_1_1_0_4" 0.0053918598845776
scalar DynamicExhaustivePollingSystem.monitor "Probability C2_1_1_0_5" 0.0020103386183714
scalar DynamicExhaustivePollingSystem.monitor "Probability C2_1_1_0_6" 0.00080282636841286
scalar DynamicExhaustivePollingSystem.monitor "Probability C2_1_1_0_7" 0.00034323589745203
scalar DynamicExhaustivePollingSystem.monitor "Probability C2_1_1_0_8" 0.00013389896889527
scalar DynamicExhaustivePollingSystem.monitor "Probability C2_1_1_0_9" 5.5445768395275e-05
scalar DynamicExhaustivePollingSystem.monitor "Probability C2_1_1_0_10" 2.2150352385694e-05
scalar DynamicExhaustivePollingSystem.monitor "Probability C2_1_1_0_11" 8.305008855723e-06
scalar DynamicExhaustivePollingSystem.monitor "Probability C2_1_1_0_12" 2.4469898946096e-06
scalar DynamicExhaustivePollingSystem.monitor "Probability C2_1_1_0_13" 6.7790509213302e-06
scalar DynamicExhaustivePollingSystem.monitor "Probability C2_1_1_0_14" 1.5925977196311e-07
scalar DynamicExhaustivePollingSystem.monitor "Probability C2_1_1_0_15" 0
scalar DynamicExhaustivePollingSystem.monitor "Probability C2_1_1_0_16" 0
scalar DynamicExhaustivePollingSystem.monitor "Probability C2_1_1_0_17" 0
scalar DynamicExhaustivePollingSystem.monitor "Probability C2_1_1_0_18" 0
scalar DynamicExhaustivePollingSystem.monitor "Probability C2_1_1_0_19" 0
scalar DynamicExhaustivePollingSystem.monitor "Probability C2_1_1_1_0" 0.44731024823758
scalar DynamicExhaustivePollingSystem.monitor "Probability C2_1_1_1_1" 0.025389712003792
scalar DynamicExhaustivePollingSystem.monitor "Probability C2_1_1_1_2" 0.002328307764885
scalar DynamicExhaustivePollingSystem.monitor "Probability C2_1_1_1_3" 0.00053607794487614
scalar DynamicExhaustivePollingSystem.monitor "Probability C2_1_1_1_4" 0.00016458543664659
scalar DynamicExhaustivePollingSystem.monitor "Probability C2_1_1_1_5" 6.0884063717334e-05
scalar DynamicExhaustivePollingSystem.monitor "Probability C2_1_1_1_6" 2.2874588649513e-05
scalar DynamicExhaustivePollingSystem.monitor "Probability C2_1_1_1_7" 1.0583213640812e-05
scalar DynamicExhaustivePollingSystem.monitor "Probability C2_1_1_1_8" 6.114935811098e-06
scalar DynamicExhaustivePollingSystem.monitor "Probability C2_1_1_1_9" 1.6884025632404e-07
scalar DynamicExhaustivePollingSystem.monitor "Probability C2_1_1_1_10" 1.5218102310854e-06
scalar DynamicExhaustivePollingSystem.monitor "Probability C2_1_1_1_11" 4.7045198955629e-07
scalar DynamicExhaustivePollingSystem.monitor "Probability C2_1_1_1_12" 0
scalar DynamicExhaustivePollingSystem.monitor "Probability C2_1_1_1_13" 0
scalar DynamicExhaustivePollingSystem.monitor "Probability C2_1_1_1_14" 0
scalar DynamicExhaustivePollingSystem.monitor "Probability C2_1_1_1_15" 0
scalar DynamicExhaustivePollingSystem.monitor "Probability C2_1_1_1_16" 0
scalar DynamicExhaustivePollingSystem.monitor "Probability C2_1_1_1_17" 0
scalar DynamicExhaustivePollingSystem.monitor "Probability C2_1_1_1_18" 0
scalar DynamicExhaustivePollingSystem.monitor "Probability C2_1_1_1_19" 0
scalar DynamicExhaustivePollingSystem.monitor "Probability C2_1_1_2_0" 0.053739274696837
scalar DynamicExhaustivePollingSystem.monitor "Probability C2_1_1_2_1" 0.001752991249493
scalar DynamicExhaustivePollingSystem.monitor "Probability C2_1_1_2_2" 9.3154000321803e-05
scalar DynamicExhaustivePollingSystem.monitor "Probability C2_1_1_2_3" 1.8958519068372e-05
scalar DynamicExhaustivePollingSystem.monitor "Probability C2_1_1_2_4" 5.2737380122458e-06
scalar DynamicExhaustivePollingSystem.monitor "Probability C2_1_1_2_5" 1.1126172551134e-06
scalar DynamicExhaustivePollingSystem.monitor "Probability C2_1_1_2_6" 1.1562865810725e-06
scalar DynamicExhaustivePollingSystem.monitor "Probability C2_1_1_2_7" 0
scalar DynamicExhaustivePollingSystem.monitor "Probability C2_1_1_2_8" 0
scalar DynamicExhaustivePollingSystem.monitor "Probability C2_1_1_2_9" 0
scalar DynamicExhaustivePollingSystem.monitor "Probability C2_1_1_2_10" 0
scalar DynamicExhaustivePollingSystem.monitor "Probability C2_1_1_2_11" 3.3348140412782e-07
scalar DynamicExhaustivePollingSystem.monitor "Probability C2_1_1_2_12" 0
scalar DynamicExhaustivePollingSystem.monitor "Probability C2_1_1_2_13" 0
scalar DynamicExhaustivePollingSystem.monitor "Probability C2_1_1_2_14" 0
scalar DynamicExhaustivePollingSystem.monitor "Probability C2_1_1_2_15" 0
scalar DynamicExhaustivePollingSystem.monitor "Probability C2_1_1_2_16" 0
scalar DynamicExhaustivePollingSystem.monitor "Probability C2_1_1_2_17" 0
scalar DynamicExhaustivePollingSystem.monitor "Probability C2_1_1_2_18" 0
scalar DynamicExhaustivePollingSystem.monitor "Probability C2_1_1_2_19" 0
scalar DynamicExhaustivePollingSystem.monitor "Probability C2_1_1_3_0" 0.015100006826166
scalar DynamicExhaustivePollingSystem.monitor "Probability C2_1_1_3_1" 0.00033344020134458
scalar DynamicExhaustivePollingSystem.monitor "Probability C2_1_1_3_2" 1.070538884497e-05
scalar DynamicExhaustivePollingSystem.monitor "Probability C2_1_1_3_3" 2.5090494014646e-06
scalar DynamicExhaustivePollingSystem.monitor "Probability C2_1_1_3_4" 7.1173580710924e-07
scalar DynamicExhaustivePollingSystem.monitor "Probability C2_1_1_3_5" 0
scalar DynamicExhaustivePollingSystem.monitor "Probability C2_1_1_3_6" 0
scalar DynamicExhaustivePollingSystem.monitor "Probability C2_1_1_3_7" 0
scalar DynamicExhaustivePollingSystem.monitor "Probability C2_1_1_3_8" 0
scalar DynamicExhaustivePollingSystem.monitor "Probability C2_1_1_3_9" 0
scalar DynamicExhaustivePollingSystem.monitor "Probability C2_1_1_3_10" 0
scalar DynamicExhaustivePollingSystem.monitor "Probability C2_1_1_3_11" 0
scalar DynamicExhaustivePollingSystem.monitor "Probability C2_1_1_3_12" 0
scalar DynamicExhaustivePollingSystem.monitor "Probability C2_1_1_3_13" 0
scalar DynamicExhaustivePollingSystem.monitor "Probability C2_1_1_3_14" 0
scalar DynamicExhaustivePollingSystem.monitor "Probability C2_1_1_3_15" 0
scalar DynamicExhaustivePollingSystem.monitor "Probability C2_1_1_3_16" 0
scalar DynamicExhaustivePollingSystem.monitor "Probability C2_1_1_3_17" 0
scalar DynamicExhaustivePollingSystem.monitor "Probability C2_1_1_3_18" 0
scalar DynamicExhaustivePollingSystem.monitor "Probability C2_1_1_3_19" 0
scalar DynamicExhaustivePollingSystem.monitor "Probability C2_1_1_4_0" 0.0055556456643663
scalar DynamicExhaustivePollingSystem.monitor "Probability C2_1_1_4_1" 0.00014146823051529
scalar DynamicExhaustivePollingSystem.monitor "Probability C2_1_1_4_2" 2.6533818958412e-06
scalar DynamicExhaustivePollingSystem.monitor "Probability C2_1_1_4_3" 0
scalar DynamicExhaustivePollingSystem.monitor "Probability C2_1_1_4_4" 0
scalar DynamicExhaustivePollingSystem.monitor "Probability C2_1_1_4_5" 0
scalar DynamicExhaustivePollingSystem.monitor "Probability C2_1_1_4_6" 0
scalar DynamicExhaustivePollingSystem.monitor "Probability C2_1_1_4_7" 0
scalar DynamicExhaustivePollingSystem.monitor "Probability C2_1_1_4_8" 0
scalar DynamicExhaustivePollingSystem.monitor "Probability C2_1_1_4_9" 0
scalar DynamicExhaustivePollingSystem.monitor "Probability C2_1_1_4_10" 0
scalar DynamicExhaustivePollingSystem.monitor "Probability C2_1_1_4_11" 0
scalar DynamicExhaustivePollingSystem.monitor "Probability C2_1_1_4_12" 0
scalar DynamicExhaustivePollingSystem.monitor "Probability C2_1_1_4_13" 0
scalar DynamicExhaustivePollingSystem.monitor "Probability C2_1_1_4_14" 0
scalar DynamicExhaustivePollingSystem.monitor "Probability C2_1_1_4_15" 0
scalar DynamicExhaustivePollingSystem.monitor "Probability C2_1_1_4_16" 0
scalar DynamicExhaustivePollingSystem.monitor "Probability C2_1_1_4_17" 0
scalar DynamicExhaustivePollingSystem.monitor "Probability C2_1_1_4_18" 0
scalar DynamicExhaustivePollingSystem.monitor "Probability C2_1_1_4_19" 0
scalar DynamicExhaustivePollingSystem.monitor "Probability C2_1_1_5_0" 0.0020811625079435
scalar DynamicExhaustivePollingSystem.monitor "Probability C2_1_1_5_1" 4.4224613846286e-05
scalar DynamicExhaustivePollingSystem.monitor "Probability C2_1_1_5_2" 3.6556855556723e-07
scalar DynamicExhaustivePollingSystem.monitor "Probability C2_1_1_5_3" 0
scalar DynamicExhaustivePollingSystem.monitor "Probability C2_1_1_5_4" 0
scalar DynamicExhaustivePollingSystem.monitor "Probability C2_1_1_5_5" 0
scalar DynamicExhaustivePollingSystem.monitor "Probability C2_1_1_5_6" 0
scalar DynamicExhaustivePollingSystem.monitor "Probability C2_1_1_5_7" 0
scalar DynamicExhaustivePollingSystem.monitor "Probability C2_1_1_5_8" 0
scalar DynamicExhaustivePollingSystem.monitor "Probability C2_1_1_5_9" 0
scalar DynamicExhaustivePollingSystem.monitor "Probability C2_1_1_5_10" 0
scalar DynamicExhaustivePollingSystem.monitor "Probability C2_1_1_5_11" 0
scalar DynamicExhaustivePollingSystem.monitor "Probability C2_1_1_5_12" 0
scalar DynamicExhaustivePollingSystem.monitor "Probability C2_1_1_5_13" 0
scalar DynamicExhaustivePollingSystem.monitor "Probability C2_1_1_5_14" 0
scalar DynamicExhaustivePollingSystem.monitor "Probability C2_1_1_5_15" 0
scalar DynamicExhaustivePollingSystem.monitor "Probability C2_1_1_5_16" 0
scalar DynamicExhaustivePollingSystem.monitor "Probability C2_1_1_5_17" 0
scalar DynamicExhaustivePollingSystem.monitor "Probability C2_1_1_5_18" 0
scalar DynamicExhaustivePollingSystem.monitor "Probability C2_1_1_5_19" 0
scalar DynamicExhaustivePollingSystem.monitor "Probability C2_1_1_6_0" 0.00089713939500263
scalar DynamicExhaustivePollingSystem.monitor "Probability C2_1_1_6_1" 2.3855753678009e-05
scalar DynamicExhaustivePollingSystem.monitor "Probability C2_1_1_6_2" 0
scalar DynamicExhaustivePollingSystem.monitor "Probability C2_1_1_6_3" 0
scalar DynamicExhaustivePollingSystem.monitor "Probability C2_1_1_6_4" 0
scalar DynamicExhaustivePollingSystem.monitor "Probability C2_1_1_6_5" 0
scalar DynamicExhaustivePollingSystem.monitor "Probability C2_1_1_6_6" 0
scalar DynamicExhaustivePollingSystem.monitor "Probability C2_1_1_6_7" 0
scalar DynamicExhaustivePollingSystem.monitor "Probability C2_1_1_6_8" 0
scalar DynamicExhaustivePollingSystem.monitor "Probability C2_1_1_6_9" 0
scalar DynamicExhaustivePollingSystem.monitor "Probability C2_1_1_6_10" 0
scalar DynamicExhaustivePollingSystem.monitor "Probability C2_1_1_6_11" 0
scalar DynamicExhaustivePollingSystem.monitor "Probability C2_1_1_6_12" 0
scalar DynamicExhaustivePollingSystem.monitor "Probability C2_1_1_6_13" 0
scalar DynamicExhaustivePollingSystem.monitor "Probability C2_1_1_6_14" 0
scalar DynamicExhaustivePollingSystem.monitor "Probability C2_1_1_6_15" 0
scalar DynamicExhaustivePollingSystem.monitor "Probability C2_1_1_6_16" 0
scalar DynamicExhaustivePollingSystem.monitor "Probability C2_1_1_6_17" 0
scalar DynamicExhaustivePollingSystem.monitor "Probability C2_1_1_6_18" 0
scalar DynamicExhaustivePollingSystem.monitor "Probability C2_1_1_6_19" 0
scalar DynamicExhaustivePollingSystem.monitor "Probability C2_1_1_7_0" 0.00037300943331301
scalar DynamicExhaustivePollingSystem.monitor "Probability C2_1_1_7_1" 6.1442097872765e-06
scalar DynamicExhaustivePollingSystem.monitor "Probability C2_1_1_7_2" 5.9021448993992e-07
scalar DynamicExhaustivePollingSystem.monitor "Probability C2_1_1_7_3" 0
scalar DynamicExhaustivePollingSystem.monitor "Probability C2_1_1_7_4" 0
scalar DynamicExhaustivePollingSystem.monitor "Probability C2_1_1_7_5" 0
scalar DynamicExhaustivePollingSystem.monitor "Probability C2_1_1_7_6" 0
scalar DynamicExhaustivePollingSystem.monitor "Probability C2_1_1_7_7" 0
scalar DynamicExhaustivePollingSystem.monitor "Probability C2_1_1_7_8" 0
scalar DynamicExhaustivePollingSystem.monitor "Probability C2_1_1_7_9" 0
scalar DynamicExhaustivePollingSystem.monitor "Probability C2_1_1_7_10" 0
scalar DynamicExhaustivePollingSystem.monitor "Probability C2_1_1_7_11" 0
scalar DynamicExhaustivePollingSystem.monitor "Probability C2_1_1_7_12" 0
scalar DynamicExhaustivePollingSystem.monitor "Probability C2_1_1_7_13" 0
scalar DynamicExhaustivePollingSystem.monitor "Probability C2_1_1_7_14" 0
scalar DynamicExhaustivePollingSystem.monitor "Probability C2_1_1_7_15" 0
scalar DynamicExhaustivePollingSystem.monitor "Probability C2_1_1_7_16" 0
scalar DynamicExhaustivePollingSystem.monitor "Probability C2_1_1_7_17" 0
scalar DynamicExhaustivePollingSystem.monitor "Probability C2_1_1_7_18" 0
scalar DynamicExhaustivePollingSystem.monitor "Probability C2_1_1_7_19" 0
scalar DynamicExhaustivePollingSystem.monitor "Probability C2_1_1_8_0" 0.00017362052409603
scalar DynamicExhaustivePollingSystem.monitor "Probability C2_1_1_8_1" 3.108037268793e-06
scalar DynamicExhaustivePollingSystem.monitor "Probability C2_1_1_8_2" 0
scalar DynamicExhaustivePollingSystem.monitor "Probability C2_1_1_8_3" 0
scalar DynamicExhaustivePollingSystem.monitor "Probability C2_1_1_8_4" 0
scalar DynamicExhaustivePollingSystem.monitor "Probability C2_1_1_8_5" 0
scalar DynamicExhaustivePollingSystem.monitor "Probability C2_1_1_8_6" 0
scalar DynamicExhaustivePollingSystem.monitor "Probability C2_1_1_8_7" 0
scalar DynamicExhaustivePollingSystem.monitor "Probability C2_1_1_8_8" 0
scalar DynamicExhaustivePollingSystem.monitor "Probability C2_1_1_8_9" 0
scalar DynamicExhaustivePollingSystem.monitor "Probability C2_1_1_8_10" 0
scalar DynamicExhaustivePollingSystem.monitor "Probability C2_1_1_8_11" 0
scalar DynamicExhaustivePollingSystem.monitor "Probability C2_1_1_8_12" 0
scalar DynamicExhaustivePollingSystem.monitor "Probability C2_1_1_8_13" 0
scalar DynamicExhaustivePollingSystem.monitor "Probability C2_1_1_8_14" 0
scalar DynamicExhaustivePollingSystem.monitor "Probability C2_1_1_8_15" 0
[...]
scalar DynamicExhaustivePollingSystem.monitor "Probability V_5_14" 0
scalar DynamicExhaustivePollingSystem.monitor "Probability V_5_15" 0
scalar DynamicExhaustivePollingSystem.monitor "Probability V_5_16" 0
scalar DynamicExhaustivePollingSystem.monitor "Probability V_5_17" 0
scalar DynamicExhaustivePollingSystem.monitor "Probability V_5_18" 0
scalar DynamicExhaustivePollingSystem.monitor "Probability V_5_19" 0
scalar DynamicExhaustivePollingSystem.monitor "Probability V_6_0" 0
scalar DynamicExhaustivePollingSystem.monitor "Probability V_6_1" 0
scalar DynamicExhaustivePollingSystem.monitor "Probability V_6_2" 0
scalar DynamicExhaustivePollingSystem.monitor "Probability V_6_3" 0
scalar DynamicExhaustivePollingSystem.monitor "Probability V_6_4" 0
scalar DynamicExhaustivePollingSystem.monitor "Probability V_6_5" 0
scalar DynamicExhaustivePollingSystem.monitor "Probability V_6_6" 0
scalar DynamicExhaustivePollingSystem.monitor "Probability V_6_7" 0
scalar DynamicExhaustivePollingSystem.monitor "Probability V_6_8" 0
scalar DynamicExhaustivePollingSystem.monitor "Probability V_6_9" 0
scalar DynamicExhaustivePollingSystem.monitor "Probability V_6_10" 0
scalar DynamicExhaustivePollingSystem.monitor "Probability V_6_11" 0
scalar DynamicExhaustivePollingSystem.monitor "Probability V_6_12" 0
scalar DynamicExhaustivePollingSystem.monitor "Probability V_6_13" 0
scalar DynamicExhaustivePollingSystem.monitor "Probability V_6_14" 0
scalar DynamicExhaustivePollingSystem.monitor "Probability V_6_15" 0
scalar DynamicExhaustivePollingSystem.monitor "Probability V_6_16" 0
scalar DynamicExhaustivePollingSystem.monitor "Probability V_6_17" 0
scalar DynamicExhaustivePollingSystem.monitor "Probability V_6_18" 0
scalar DynamicExhaustivePollingSystem.monitor "Probability V_6_19" 0
scalar DynamicExhaustivePollingSystem.monitor "Probability V_7_0" 0
scalar DynamicExhaustivePollingSystem.monitor "Probability V_7_1" 0
scalar DynamicExhaustivePollingSystem.monitor "Probability V_7_2" 0
scalar DynamicExhaustivePollingSystem.monitor "Probability V_7_3" 0
scalar DynamicExhaustivePollingSystem.monitor "Probability V_7_4" 0
scalar DynamicExhaustivePollingSystem.monitor "Probability V_7_5" 0
scalar DynamicExhaustivePollingSystem.monitor "Probability V_7_6" 0
scalar DynamicExhaustivePollingSystem.monitor "Probability V_7_7" 0
scalar DynamicExhaustivePollingSystem.monitor "Probability V_7_8" 0
scalar DynamicExhaustivePollingSystem.monitor "Probability V_7_9" 0
scalar DynamicExhaustivePollingSystem.monitor "Probability V_7_10" 0
scalar DynamicExhaustivePollingSystem.monitor "Probability V_7_11" 0
scalar DynamicExhaustivePollingSystem.monitor "Probability V_7_12" 0
scalar DynamicExhaustivePollingSystem.monitor "Probability V_7_13" 0
scalar DynamicExhaustivePollingSystem.monitor "Probability V_7_14" 0
scalar DynamicExhaustivePollingSystem.monitor "Probability V_7_15" 0
scalar DynamicExhaustivePollingSystem.monitor "Probability V_7_16" 0
scalar DynamicExhaustivePollingSystem.monitor "Probability V_7_17" 0
scalar DynamicExhaustivePollingSystem.monitor "Probability V_7_18" 0
scalar DynamicExhaustivePollingSystem.monitor "Probability V_7_19" 0
scalar DynamicExhaustivePollingSystem.monitor "Probability V_8_0" 0
scalar DynamicExhaustivePollingSystem.monitor "Probability V_8_1" 0
scalar DynamicExhaustivePollingSystem.monitor "Probability V_8_2" 0
scalar DynamicExhaustivePollingSystem.monitor "Probability V_8_3" 0
scalar DynamicExhaustivePollingSystem.monitor "Probability V_8_4" 0
scalar DynamicExhaustivePollingSystem.monitor "Probability V_8_5" 0
scalar DynamicExhaustivePollingSystem.monitor "Probability V_8_6" 0
scalar DynamicExhaustivePollingSystem.monitor "Probability V_8_7" 0
scalar DynamicExhaustivePollingSystem.monitor "Probability V_8_8" 0
scalar DynamicExhaustivePollingSystem.monitor "Probability V_8_9" 0
scalar DynamicExhaustivePollingSystem.monitor "Probability V_8_10" 0
scalar DynamicExhaustivePollingSystem.monitor "Probability V_8_11" 0
scalar DynamicExhaustivePollingSystem.monitor "Probability V_8_12" 0
scalar DynamicExhaustivePollingSystem.monitor "Probability V_8_13" 0
scalar DynamicExhaustivePollingSystem.monitor "Probability V_8_14" 0
scalar DynamicExhaustivePollingSystem.monitor "Probability V_8_15" 0
scalar DynamicExhaustivePollingSystem.monitor "Probability V_8_16" 0
scalar DynamicExhaustivePollingSystem.monitor "Probability V_8_17" 0
scalar DynamicExhaustivePollingSystem.monitor "Probability V_8_18" 0
scalar DynamicExhaustivePollingSystem.monitor "Probability V_8_19" 0
scalar DynamicExhaustivePollingSystem.monitor "Probability V_9_0" 0
scalar DynamicExhaustivePollingSystem.monitor "Probability V_9_1" 0
scalar DynamicExhaustivePollingSystem.monitor "Probability V_9_2" 0
scalar DynamicExhaustivePollingSystem.monitor "Probability V_9_3" 0
scalar DynamicExhaustivePollingSystem.monitor "Probability V_9_4" 0
scalar DynamicExhaustivePollingSystem.monitor "Probability V_9_5" 0
scalar DynamicExhaustivePollingSystem.monitor "Probability V_9_6" 0
scalar DynamicExhaustivePollingSystem.monitor "Probability V_9_7" 0
scalar DynamicExhaustivePollingSystem.monitor "Probability V_9_8" 0
scalar DynamicExhaustivePollingSystem.monitor "Probability V_9_9" 0
scalar DynamicExhaustivePollingSystem.monitor "Probability V_9_10" 0
scalar DynamicExhaustivePollingSystem.monitor "Probability V_9_11" 0
scalar DynamicExhaustivePollingSystem.monitor "Probability V_9_12" 0
scalar DynamicExhaustivePollingSystem.monitor "Probability V_9_13" 0
scalar DynamicExhaustivePollingSystem.monitor "Probability V_9_14" 0
scalar DynamicExhaustivePollingSystem.monitor "Probability V_9_15" 0
scalar DynamicExhaustivePollingSystem.monitor "Probability V_9_16" 0
scalar DynamicExhaustivePollingSystem.monitor "Probability V_9_17" 0
scalar DynamicExhaustivePollingSystem.monitor "Probability V_9_18" 0
scalar DynamicExhaustivePollingSystem.monitor "Probability V_9_19" 0
scalar DynamicExhaustivePollingSystem.monitor "Probability V_10_0" 0
scalar DynamicExhaustivePollingSystem.monitor "Probability V_10_1" 0
scalar DynamicExhaustivePollingSystem.monitor "Probability V_10_2" 0
scalar DynamicExhaustivePollingSystem.monitor "Probability V_10_3" 0
scalar DynamicExhaustivePollingSystem.monitor "Probability V_10_4" 0
scalar DynamicExhaustivePollingSystem.monitor "Probability V_10_5" 0
scalar DynamicExhaustivePollingSystem.monitor "Probability V_10_6" 0
scalar DynamicExhaustivePollingSystem.monitor "Probability V_10_7" 0
scalar DynamicExhaustivePollingSystem.monitor "Probability V_10_8" 0
scalar DynamicExhaustivePollingSystem.monitor "Probability V_10_9" 0
scalar DynamicExhaustivePollingSystem.monitor "Probability V_10_10" 0
scalar DynamicExhaustivePollingSystem.monitor "Probability V_10_11" 0
scalar DynamicExhaustivePollingSystem.monitor "Probability V_10_12" 0
scalar DynamicExhaustivePollingSystem.monitor "Probability V_10_13" 0
scalar DynamicExhaustivePollingSystem.monitor "Probability V_10_14" 0
scalar DynamicExhaustivePollingSystem.monitor "Probability V_10_15" 0
scalar DynamicExhaustivePollingSystem.monitor "Probability V_10_16" 0
scalar DynamicExhaustivePollingSystem.monitor "Probability V_10_17" 0
scalar DynamicExhaustivePollingSystem.monitor "Probability V_10_18" 0
scalar DynamicExhaustivePollingSystem.monitor "Probability V_10_19" 0
scalar DynamicExhaustivePollingSystem.monitor "Probability V_11_0" 0
scalar DynamicExhaustivePollingSystem.monitor "Probability V_11_1" 0
scalar DynamicExhaustivePollingSystem.monitor "Probability V_11_2" 0
scalar DynamicExhaustivePollingSystem.monitor "Probability V_11_3" 0
scalar DynamicExhaustivePollingSystem.monitor "Probability V_11_4" 0
scalar DynamicExhaustivePollingSystem.monitor "Probability V_11_5" 0
scalar DynamicExhaustivePollingSystem.monitor "Probability V_11_6" 0
scalar DynamicExhaustivePollingSystem.monitor "Probability V_11_7" 0
scalar DynamicExhaustivePollingSystem.monitor "Probability V_11_8" 0
scalar DynamicExhaustivePollingSystem.monitor "Probability V_11_9" 0
scalar DynamicExhaustivePollingSystem.monitor "Probability V_11_10" 0
scalar DynamicExhaustivePollingSystem.monitor "Probability V_11_11" 0
scalar DynamicExhaustivePollingSystem.monitor "Probability V_11_12" 0
scalar DynamicExhaustivePollingSystem.monitor "Probability V_11_13" 0
scalar DynamicExhaustivePollingSystem.monitor "Probability V_11_14" 0
scalar DynamicExhaustivePollingSystem.monitor "Probability V_11_15" 0
scalar DynamicExhaustivePollingSystem.monitor "Probability V_11_16" 0
scalar DynamicExhaustivePollingSystem.monitor "Probability V_11_17" 0
scalar DynamicExhaustivePollingSystem.monitor "Probability V_11_18" 0
scalar DynamicExhaustivePollingSystem.monitor "Probability V_11_19" 0
scalar DynamicExhaustivePollingSystem.monitor "Probability V_12_0" 0
scalar DynamicExhaustivePollingSystem.monitor "Probability V_12_1" 0
scalar DynamicExhaustivePollingSystem.monitor "Probability V_12_2" 0
scalar DynamicExhaustivePollingSystem.monitor "Probability V_12_3" 0
scalar DynamicExhaustivePollingSystem.monitor "Probability V_12_4" 0
scalar DynamicExhaustivePollingSystem.monitor "Probability V_12_5" 0
scalar DynamicExhaustivePollingSystem.monitor "Probability V_12_6" 0
scalar DynamicExhaustivePollingSystem.monitor "Probability V_12_7" 0
scalar DynamicExhaustivePollingSystem.monitor "Probability V_12_8" 0
scalar DynamicExhaustivePollingSystem.monitor "Probability V_12_9" 0
scalar DynamicExhaustivePollingSystem.monitor "Probability V_12_10" 0
scalar DynamicExhaustivePollingSystem.monitor "Probability V_12_11" 0
scalar DynamicExhaustivePollingSystem.monitor "Probability V_12_12" 0
scalar DynamicExhaustivePollingSystem.monitor "Probability V_12_13" 0
scalar DynamicExhaustivePollingSystem.monitor "Probability V_12_14" 0
scalar DynamicExhaustivePollingSystem.monitor "Probability V_12_15" 0
scalar DynamicExhaustivePollingSystem.monitor "Probability V_12_16" 0
scalar DynamicExhaustivePollingSystem.monitor "Probability V_12_17" 0
scalar DynamicExhaustivePollingSystem.monitor "Probability V_12_18" 0
scalar DynamicExhaustivePollingSystem.monitor "Probability V_12_19" 0
scalar DynamicExhaustivePollingSystem.monitor "Probability V_13_0" 0
scalar DynamicExhaustivePollingSystem.monitor "Probability V_13_1" 0
scalar DynamicExhaustivePollingSystem.monitor "Probability V_13_2" 0
scalar DynamicExhaustivePollingSystem.monitor "Probability V_13_3" 0
scalar DynamicExhaustivePollingSystem.monitor "Probability V_13_4" 0
scalar DynamicExhaustivePollingSystem.monitor "Probability V_13_5" 0
scalar DynamicExhaustivePollingSystem.monitor "Probability V_13_6" 0
scalar DynamicExhaustivePollingSystem.monitor "Probability V_13_7" 0
scalar DynamicExhaustivePollingSystem.monitor "Probability V_13_8" 0
scalar DynamicExhaustivePollingSystem.monitor "Probability V_13_9" 0
scalar DynamicExhaustivePollingSystem.monitor "Probability V_13_10" 0
scalar DynamicExhaustivePollingSystem.monitor "Probability V_13_11" 0
scalar DynamicExhaustivePollingSystem.monitor "Probability V_13_12" 0
scalar DynamicExhaustivePollingSystem.monitor "Probability V_13_13" 0
scalar DynamicExhaustivePollingSystem.monitor "Probability V_13_14" 0
scalar DynamicExhaustivePollingSystem.monitor "Probability V_13_15" 0
scalar DynamicExhaustivePollingSystem.monitor "Probability V_13_16" 0
scalar DynamicExhaustivePollingSystem.monitor "Probability V_13_17" 0
scalar DynamicExhaustivePollingSystem.monitor "Probability V_13_18" 0
scalar DynamicExhaustivePollingSystem.monitor "Probability V_13_19" 0
scalar DynamicExhaustivePollingSystem.monitor "Probability V_14_0" 0
scalar DynamicExhaustivePollingSystem.monitor "Probability V_14_1" 0
scalar DynamicExhaustivePollingSystem.monitor "Probability V_14_2" 0
scalar DynamicExhaustivePollingSystem.monitor "Probability V_14_3" 0
scalar DynamicExhaustivePollingSystem.monitor "Probability V_14_4" 0
scalar DynamicExhaustivePollingSystem.monitor "Probability V_14_5" 0
scalar DynamicExhaustivePollingSystem.monitor "Probability V_14_6" 0
scalar DynamicExhaustivePollingSystem.monitor "Probability V_14_7" 0
scalar DynamicExhaustivePollingSystem.monitor "Probability V_14_8" 0
scalar DynamicExhaustivePollingSystem.monitor "Probability V_14_9" 0
scalar DynamicExhaustivePollingSystem.monitor "Probability V_14_10" 0
scalar DynamicExhaustivePollingSystem.monitor "Probability V_14_11" 0
scalar DynamicExhaustivePollingSystem.monitor "Probability V_14_12" 0
scalar DynamicExhaustivePollingSystem.monitor "Probability V_14_13" 0
scalar DynamicExhaustivePollingSystem.monitor "Probability V_14_14" 0
scalar DynamicExhaustivePollingSystem.monitor "Probability V_14_15" 0
scalar DynamicExhaustivePollingSystem.monitor "Probability V_14_16" 0
scalar DynamicExhaustivePollingSystem.monitor "Probability V_14_17" 0
scalar DynamicExhaustivePollingSystem.monitor "Probability V_14_18" 0
scalar DynamicExhaustivePollingSystem.monitor "Probability V_14_19" 0
scalar DynamicExhaustivePollingSystem.monitor "Probability V_15_0" 0
scalar DynamicExhaustivePollingSystem.monitor "Probability V_15_1" 0
scalar DynamicExhaustivePollingSystem.monitor "Probability V_15_2" 0
scalar DynamicExhaustivePollingSystem.monitor "Probability V_15_3" 0
scalar DynamicExhaustivePollingSystem.monitor "Probability V_15_4" 0
scalar DynamicExhaustivePollingSystem.monitor "Probability V_15_5" 0
scalar DynamicExhaustivePollingSystem.monitor "Probability V_15_6" 0
scalar DynamicExhaustivePollingSystem.monitor "Probability V_15_7" 0
scalar DynamicExhaustivePollingSystem.monitor "Probability V_15_8" 0
scalar DynamicExhaustivePollingSystem.monitor "Probability V_15_9" 0
scalar DynamicExhaustivePollingSystem.monitor "Probability V_15_10" 0
scalar DynamicExhaustivePollingSystem.monitor "Probability V_15_11" 0
scalar DynamicExhaustivePollingSystem.monitor "Probability V_15_12" 0
scalar DynamicExhaustivePollingSystem.monitor "Probability V_15_13" 0
scalar DynamicExhaustivePollingSystem.monitor "Probability V_15_14" 0
scalar DynamicExhaustivePollingSystem.monitor "Probability V_15_15" 0
scalar DynamicExhaustivePollingSystem.monitor "Probability V_15_16" 0
scalar DynamicExhaustivePollingSystem.monitor "Probability V_15_17" 0
scalar DynamicExhaustivePollingSystem.monitor "Probability V_15_18" 0
scalar DynamicExhaustivePollingSystem.monitor "Probability V_15_19" 0
scalar DynamicExhaustivePollingSystem.monitor "Probability V_16_0" 0
scalar DynamicExhaustivePollingSystem.monitor "Probability V_16_1" 0
scalar DynamicExhaustivePollingSystem.monitor "Probability V_16_2" 0
scalar DynamicExhaustivePollingSystem.monitor "Probability V_16_3" 0
scalar DynamicExhaustivePollingSystem.monitor "Probability V_16_4" 0
scalar DynamicExhaustivePollingSystem.monitor "Probability V_16_5" 0
scalar DynamicExhaustivePollingSystem.monitor "Probability V_16_6" 0
scalar DynamicExhaustivePollingSystem.monitor "Probability V_16_7" 0
scalar DynamicExhaustivePollingSystem.monitor "Probability V_16_8" 0
scalar DynamicExhaustivePollingSystem.monitor "Probability V_16_9" 0
scalar DynamicExhaustivePollingSystem.monitor "Probability V_16_10" 0
scalar DynamicExhaustivePollingSystem.monitor "Probability V_16_11" 0
scalar DynamicExhaustivePollingSystem.monitor "Probability V_16_12" 0
scalar DynamicExhaustivePollingSystem.monitor "Probability V_16_13" 0
scalar DynamicExhaustivePollingSystem.monitor "Probability V_16_14" 0
scalar DynamicExhaustivePollingSystem.monitor "Probability V_16_15" 0
scalar DynamicExhaustivePollingSystem.monitor "Probability V_16_16" 0
scalar DynamicExhaustivePollingSystem.monitor "Probability V_16_17" 0
scalar DynamicExhaustivePollingSystem.monitor "Probability V_16_18" 0
scalar DynamicExhaustivePollingSystem.monitor "Probability V_16_19" 0
scalar DynamicExhaustivePollingSystem.monitor "Probability V_17_0" 0
scalar DynamicExhaustivePollingSystem.monitor "Probability V_17_1" 0
scalar DynamicExhaustivePollingSystem.monitor "Probability V_17_2" 0
scalar DynamicExhaustivePollingSystem.monitor "Probability V_17_3" 0
scalar DynamicExhaustivePollingSystem.monitor "Probability V_17_4" 0
scalar DynamicExhaustivePollingSystem.monitor "Probability V_17_5" 0
scalar DynamicExhaustivePollingSystem.monitor "Probability V_17_6" 0
scalar DynamicExhaustivePollingSystem.monitor "Probability V_17_7" 0
scalar DynamicExhaustivePollingSystem.monitor "Probability V_17_8" 0
scalar DynamicExhaustivePollingSystem.monitor "Probability V_17_9" 0
scalar DynamicExhaustivePollingSystem.monitor "Probability V_17_10" 0
scalar DynamicExhaustivePollingSystem.monitor "Probability V_17_11" 0
scalar DynamicExhaustivePollingSystem.monitor "Probability V_17_12" 0
scalar DynamicExhaustivePollingSystem.monitor "Probability V_17_13" 0
scalar DynamicExhaustivePollingSystem.monitor "Probability V_17_14" 0
scalar DynamicExhaustivePollingSystem.monitor "Probability V_17_15" 0
scalar DynamicExhaustivePollingSystem.monitor "Probability V_17_16" 0
scalar DynamicExhaustivePollingSystem.monitor "Probability V_17_17" 0
scalar DynamicExhaustivePollingSystem.monitor "Probability V_17_18" 0
scalar DynamicExhaustivePollingSystem.monitor "Probability V_17_19" 0
scalar DynamicExhaustivePollingSystem.monitor "Probability V_18_0" 0
scalar DynamicExhaustivePollingSystem.monitor "Probability V_18_1" 0
scalar DynamicExhaustivePollingSystem.monitor "Probability V_18_2" 0
scalar DynamicExhaustivePollingSystem.monitor "Probability V_18_3" 0
scalar DynamicExhaustivePollingSystem.monitor "Probability V_18_4" 0
scalar DynamicExhaustivePollingSystem.monitor "Probability V_18_5" 0
scalar DynamicExhaustivePollingSystem.monitor "Probability V_18_6" 0
scalar DynamicExhaustivePollingSystem.monitor "Probability V_18_7" 0
scalar DynamicExhaustivePollingSystem.monitor "Probability V_18_8" 0
scalar DynamicExhaustivePollingSystem.monitor "Probability V_18_9" 0
scalar DynamicExhaustivePollingSystem.monitor "Probability V_18_10" 0
scalar DynamicExhaustivePollingSystem.monitor "Probability V_18_11" 0
scalar DynamicExhaustivePollingSystem.monitor "Probability V_18_12" 0
scalar DynamicExhaustivePollingSystem.monitor "Probability V_18_13" 0
scalar DynamicExhaustivePollingSystem.monitor "Probability V_18_14" 0
scalar DynamicExhaustivePollingSystem.monitor "Probability V_18_15" 0
scalar DynamicExhaustivePollingSystem.monitor "Probability V_18_16" 0
scalar DynamicExhaustivePollingSystem.monitor "Probability V_18_17" 0
scalar DynamicExhaustivePollingSystem.monitor "Probability V_18_18" 0
scalar DynamicExhaustivePollingSystem.monitor "Probability V_18_19" 0
scalar DynamicExhaustivePollingSystem.monitor "Probability V_19_0" 0
scalar DynamicExhaustivePollingSystem.monitor "Probability V_19_1" 0
scalar DynamicExhaustivePollingSystem.monitor "Probability V_19_2" 0
scalar DynamicExhaustivePollingSystem.monitor "Probability V_19_3" 0
scalar DynamicExhaustivePollingSystem.monitor "Probability V_19_4" 0
scalar DynamicExhaustivePollingSystem.monitor "Probability V_19_5" 0
scalar DynamicExhaustivePollingSystem.monitor "Probability V_19_6" 0
scalar DynamicExhaustivePollingSystem.monitor "Probability V_19_7" 0
scalar DynamicExhaustivePollingSystem.monitor "Probability V_19_8" 0
scalar DynamicExhaustivePollingSystem.monitor "Probability V_19_9" 0
scalar DynamicExhaustivePollingSystem.monitor "Probability V_19_10" 0
scalar DynamicExhaustivePollingSystem.monitor "Probability V_19_11" 0
scalar DynamicExhaustivePollingSystem.monitor "Probability V_19_12" 0
scalar DynamicExhaustivePollingSystem.monitor "Probability V_19_13" 0
scalar DynamicExhaustivePollingSystem.monitor "Probability V_19_14" 0
scalar DynamicExhaustivePollingSystem.monitor "Probability V_19_15" 0
scalar DynamicExhaustivePollingSystem.monitor "Probability V_19_16" 0
scalar DynamicExhaustivePollingSystem.monitor "Probability V_19_17" 0
scalar DynamicExhaustivePollingSystem.monitor "Probability V_19_18" 0
scalar DynamicExhaustivePollingSystem.monitor "Probability V_19_19" 0
scalar DynamicExhaustivePollingSystem.monitor "Probability C1_0_1_0_0" 0
par DynamicExhaustivePollingSystem typename "\"DynamicExhaustivePollingSystem\""
par DynamicExhaustivePollingSystem numQueues 2

